11

N       -0.3981045213      4.0989727768     -0.6452227986                 
H        0.0512445439      3.3513721336     -1.2220868377                 
H       -0.1073624510      5.0311454207     -1.0190872702                 
H       -0.0773330198      4.0208021505      0.3470415107                 
H       -2.1816480331      4.1029578783     -1.7758118245                 
H       -2.3171334288      4.8083531980     -0.1223640466                 
C       -1.8558971408      3.9897315191     -0.7180717193                 
C       -2.3490568230      2.6418456783     -0.1834460731                 
F       -3.7278906941      2.5894435039     -0.2740712155                 
F       -1.8123932437      1.6064619664     -0.9276935239                 
F       -1.9819544805      2.4892868419      1.1416550940                 
