8

O        1.2530094988      3.9717006207      0.2177982267                 
C        0.8022510321      2.6690432514     -0.0008911610                 
H        1.1845945110      2.0110206599      0.8079329876                 
H        1.1955413670      2.3064043355     -0.9741293128                 
C       -0.7207662010      2.6379637770     -0.0153982946                 
F       -1.1555339802      1.3434137851     -0.2326455589                 
F       -1.2127753715      3.0825390035      1.1985878692                 
F       -1.1991051113      3.4514093627     -1.0268233921                 
