63

Si                    -3.51004010    -3.99624562    -0.13225455
Si                     1.65027701     3.84656337    -0.39329110
Si                     3.50039763     1.71385748     0.92361079
Si                    -0.65273985    -4.72408862     0.61790690
Si                     2.09375635    -3.66534157    -0.36457832
Si                     3.54416020    -0.96157058    -0.46397320
Si                    -1.23780055     4.70081118     0.30284281
Si                    -3.91492831     3.23624892    -0.06456769
O                     -4.34465239    -4.85675305     0.93991848
O                     -4.07917833    -2.51466568    -0.20964597
O                      2.33941981     5.21473484     0.01706636
O                      2.31187286     2.62591143     0.39274303
O                      4.85390350     2.15743160     0.19593422
O                      1.82342002     3.65862394    -1.96653620
O                     -3.64619071    -4.70847138    -1.55793652
O                      3.50652475    -0.37928523    -1.94831430
O                      3.20203248     0.18816838     0.58626692
O                     -1.97475073    -3.89387014     0.29220785
O                      0.10334232     3.89293892    -0.00029842
O                     -1.11350016     5.46411325     1.69176010
O                      3.61034060     1.83584636     2.50440983
O                      0.60937352    -3.84913764     0.18920595
O                      2.45522118    -2.12067050    -0.29731299
O                      4.99159095    -1.56778668    -0.17288914
O                      3.11162935    -4.50594390     0.53754804
O                     -2.43687534     3.64880763     0.35971266
O                     -4.27577013     1.84885869     0.64320272
O                     -4.96619682     4.33737894     0.42894002
O                     -4.00970714     3.12871932    -1.65148354
O                      2.18693647    -4.17856648    -1.87298822
O                     -0.62117969    -5.04990608     2.19132666
O                     -0.69622515    -6.08970845    -0.19985640
O                     -1.51155916     5.80625122    -0.83723073
H                     -0.34591201    -6.79873732    -0.77861323
H                     -1.62366566     6.04101059    -1.78206933
H                      1.74000085     3.22224739    -2.84004353
H                      3.50814934     0.14959077    -2.77335249
H                     -4.85142560    -1.91139671    -0.21976689
H                     -1.12314811     5.55702318     2.66729864
H                      5.76020970     2.44189057    -0.04508796
H                     -0.32465678    -5.59512914     2.94975028
H                     -3.53973220    -4.82402759    -2.52525904
H                     -3.95249370     2.81359235    -2.57767007
H                      5.96788478    -1.63770092    -0.22149151
H                      3.71158535    -5.24601446     0.76721911
H                      2.12864228    -4.24470165    -2.84901449
H                     -4.96694045     1.32377393     1.09814223
H                     -5.44690961     5.18662470     0.33896216
H                      3.65805539     2.39309821     3.30914150
H                      2.93689512     5.97931766    -0.12017855
H                     -4.83677265    -5.68336550     1.12681709
O                      0.85721303     1.26887701    -3.09083909
H                      1.01768695     1.53178753    -2.15977720
H                     -0.14629742     1.36699650    -3.15688659
O                     -2.32664139    -1.17764478    -2.24429127
H                     -1.41509671    -1.17826556    -1.82487420
H                     -2.91368673    -1.40598312    -1.48742943
O                      0.09716678    -0.63977113    -1.23018735
H                      0.69798416    -1.22618534    -0.72245006
H                      0.60840401    -0.35953371    -2.02901672
O                     -1.91943797     1.44328991    -2.89199465
H                     -1.96906494     1.88870190    -2.02022898
H                     -2.18442035     0.48952174    -2.67326982
