54

Si                     2.33516585     1.44603130    -0.34396786
Si                     2.49057390    -1.31647138     1.08782902
Si                    -2.08164854    -4.62028153     0.21979727
Si                     0.74423939    -3.46526783    -0.10305690
Si                     0.69183117     3.97213279     0.34421536
Si                    -2.32316206     4.53181333     0.13559789
O                      3.75866332     2.07906855    -0.04711531
O                      2.11969200     0.11916289     0.51541579
O                      3.77108106    -1.86787295     0.30392329
O                      2.25369263     1.12257093    -1.90253623
O                      0.99376215    -3.05752990    -1.62464450
O                      1.27304917    -2.31631833     0.86762874
O                      1.19559545     2.48328211     0.07446994
O                      1.35606876     4.54140029     1.67157805
O                      2.74901359    -1.22361985     2.65322935
O                     -3.30904856    -3.79309928     0.81402671
O                     -0.81989502    -3.65773449     0.16808256
O                      1.49398138    -4.84056289     0.20310335
O                     -1.77445326    -5.87611581     1.16055271
O                     -0.89605525     3.92745065     0.50024975
O                     -3.43752306     3.72376373     0.94877438
O                     -2.40594115     6.07034415     0.56834426
O                     -2.56111693     4.44018162    -1.43724307
O                     -2.42697770    -5.14055290    -1.24902818
O                      1.11179151     4.94804047    -0.86737378
H                      1.11652884     5.15902267    -1.82438155
H                      1.85957766     0.80152447    -2.74039230
H                      1.27989489    -2.68718693    -2.48567501
H                      1.46696657     4.66159207     2.63783721
H                      4.63555749    -2.23603519     0.02546739
H                     -4.23200203    -3.70213996     1.13070119
H                     -2.77315412     4.12072816    -2.33912421
H                      2.19957717    -5.51780404     0.14082312
H                     -1.76680927    -6.81787219     1.43154521
H                     -2.57333047    -5.19690918    -2.21639810
H                     -4.27555145     3.77902137     1.45380288
H                     -2.24392817     7.02638642     0.42644467
H                      3.18800599    -0.78975572     3.41444349
H                      4.69558131     2.28172657    -0.25086567
O                      1.56284304    -1.12629114    -3.35286465
H                      2.09010190    -0.96933756    -2.53916917
H                      0.60371406    -0.95019259    -3.04624478
O                     -0.94059615    -1.03389554    -2.45423824
H                     -0.77867706    -1.87319725    -1.97027153
H                     -1.17368849    -0.37212037    -1.73365220
O                     -2.96163975    -1.15627687     1.39738503
H                     -2.84641256    -2.07874776     1.02044570
H                     -2.40477958    -1.18231129     2.20209619
O                     -1.70883532     0.66514315    -0.47624977
H                     -1.04742267     1.24611877    -0.04642029
H                     -2.12320901     0.13113027     0.25022889
O                     -1.90029081     1.93359455     1.78140757
H                     -2.47448937     2.23260983     1.04890131
H                     -1.19565520     2.63663767     1.81790267
