69 

Si                     2.41195652     2.72825186    -0.56774202
Si                     3.39032822     0.04401790     0.67455100
Si                    -2.80340513    -4.46424133     0.35451005
Si                     0.12577310    -4.44037574    -0.66960390
Si                     2.44959730    -2.43632690    -0.75658002
Si                     0.03427267     4.54659830     0.20398952
Si                    -2.99532862     4.14991433    -0.12933563
O                      3.55264243     3.74794856    -0.15030426
O                      2.60167147     1.33388267     0.18411847
O                      4.80227953    -0.01163032    -0.07481354
O                      2.48349433     2.52653086    -2.14716941
O                      2.60261800    -1.84574708    -2.23019444
O                      2.55867170    -1.26464412     0.31916034
O                     -3.74309953    -3.20746278     0.07072421
O                      0.99087759     3.31811045    -0.14089013
O                      0.44446315     5.18251784     1.60203063
O                      3.55932239     0.08237286     2.25438028
O                     -1.31738836    -4.09139202    -0.08707116
O                      1.01927415    -3.13051589    -0.58524615
O                      3.58634371    -3.52836188    -0.50648352
O                      0.78618793    -5.61074079     0.19677295
O                     -1.46187857     3.99438255     0.26966459
O                     -3.82064801     2.96893633     0.56358307
O                     -3.57333045     5.54358228     0.40433434
O                     -3.14506244     4.11974489    -1.71537401
O                      0.00669372    -4.91835195    -2.18774144
O                     -2.86862863    -4.81537960     1.92143398
O                     -3.34656048    -5.70415387    -0.48402609
O                      0.15995773     5.70225078    -0.91197815
H                     -3.28284537    -6.47831932    -1.08152822
H                      0.12626434     5.98304864    -1.85028314
H                      2.23632553     2.16922372    -3.02559971
H                     -4.64891985    -2.92166178    -0.17053790
H                      2.78247914    -1.33410285    -3.04644868
H                      0.48278232     5.25046487     2.57892142
H                      5.74672104    -0.06621235    -0.33064878
H                     -2.77713300    -5.44782984     2.66442498
H                     -3.21817975     3.82626050    -2.64753316
H                      4.47144220    -3.94309336    -0.57718224
H                      1.08321090    -6.52191979     0.40153973
H                     -0.08540044    -4.93690727    -3.16322785
H                     -4.64780506     2.71688343     1.02475647
H                     -3.71785330     6.51062265     0.33840546
H                      3.81564747     0.56684485     3.06677408
H                      4.38300649     4.24987323    -0.28802482
O                     -0.97350968     1.50814182    -1.94801244
H                     -0.81964676     2.24876995    -1.32612500
H                     -1.98491077     1.39574296    -1.96608613
O                     -3.29428169    -0.45447404     0.33025204
H                     -2.34019026    -0.55031399     0.04212894
H                     -3.51350676    -1.40761191     0.44318305
O                     -0.99482516    -0.98759230    -0.95296291
H                     -0.23375971    -1.44074147    -0.54576458
H                     -0.69502067    -0.10518038    -1.31255069
O                     -3.66213881     1.11095342    -1.79796462
H                     -3.92333350     1.84342488    -1.19512484
H                     -3.63646750     0.34565386    -1.13802899
O                      1.14390482     1.73216030     2.10727464
H                      1.02285810     0.74033841     2.15998458
H                      1.74321456     1.81107075     1.33716926
O                      0.40299034    -0.90859907     2.56572318
H                     -0.27522484    -0.38037311     2.03314113
H                      1.05918847    -1.22554009     1.90654691
O                      1.0           -3.70145555     2.06869195
H                      1.0           -2.71198131     2.03391451
H                      1.0           -3.7            1.2       
O                     -1.06538878     1.09575470     1.62192870
H                     -0.36678916     1.63922721     2.08743642
H                     -0.99365993     1.33727385     0.67773680
