54

Si                     2.47924442     1.28776116    -0.59865729
Si                     2.51475270    -1.48088548     0.82926076
Si                    -2.04391854    -4.71936722    -0.31293498
Si                     0.81115557    -3.60206715    -0.46826180
Si                     0.83313503     3.83398165     0.00335505
Si                    -2.15703557     4.43538275    -0.37630826
O                      3.89166924     1.90041819    -0.21798667
O                      2.19680160    -0.03861331     0.24188172
O                      3.83074870    -2.04735986     0.11826724
O                      2.48332701     0.97011704    -2.16054250
O                      1.15336172    -3.19321279    -1.97141639
O                      1.29859057    -2.46335739     0.53558209
O                      1.33152355     2.33920947    -0.24257676
O                      1.42741965     4.39014828     1.36888543
O                      2.68383090    -1.39626346     2.40727926
O                     -3.29226598    -3.87729525     0.21279634
O                     -0.76844609    -3.77398001    -0.28831436
O                      1.52344995    -4.98837857    -0.12466176
O                     -1.80833813    -5.98209204     0.63918758
O                     -0.76155948     3.81050814     0.06758056
O                     -3.32715096     3.64018332     0.36833155
O                     -2.24389545     5.97359575     0.05676797
O                     -2.30521986     4.35172316    -1.96057151
O                     -2.31104641    -5.23047098    -1.80115485
O                      1.33526989     4.80769468    -1.17836159
H                      1.39795555     5.02146079    -2.13270658
H                      2.13383868     0.65699289    -3.02089790
H                      1.49356633    -2.82422981    -2.81314782
H                      1.48408921     4.50591785     2.34037251
H                      4.70479635    -2.42645002    -0.11136719
H                     -4.23061871    -3.77469740     0.47617296
H                     -2.46924025     4.03789875    -2.87436110
H                      2.22228651    -5.67499711    -0.14879164
H                     -1.82898473    -6.92467325     0.90661015
H                     -2.40218610    -5.28192405    -2.77554997
H                     -4.19205572     3.70535919     0.82450108
H                     -2.06113172     6.92775888    -0.07195909
H                      3.08405001    -0.97071540     3.19412923
H                      4.84140834     2.09087986    -0.36671396
O                      0.35468752     0.81751074     1.58465840
H                     -0.10644515     1.59917174     1.17329354
H                      1.22296249     0.79972579     1.10760546
O                     -0.86789822     0.18448874    -0.30445579
H                     -1.42410576    -0.61562254    -0.09656231
H                     -0.18334300     0.15283072     0.40025902
O                     -4.26227680    -0.36797592     0.09506846
H                     -3.66801272    -1.10324497     0.37841619
H                     -3.96690886     0.31712948     0.74299562
O                     -2.09903699    -1.57526522     1.57758340
H                     -1.54798960    -2.39637130     1.49034692
H                     -1.65125254    -1.03341091     2.26921133
O                     -2.49284000     1.30784936     1.57194925
H                     -2.70318467     2.23821462     1.35036305
H                     -2.02953261     0.99269448     0.75986624
