42

Si    0.550384    0.128810   -1.538144
Si    2.947741    0.842267    0.319078
Si    3.594583   -1.228528    2.411594
Si   -2.418817    0.976649   -1.395497
Si   -4.652906    0.166778    0.553837
O     0.890996    0.914230   -2.873173
O     1.540452    0.560383   -0.363811
O     4.104095    0.292017   -0.639213
O     0.681884   -1.431493   -1.835738
O     3.331986   -2.495019    1.478437
O     3.028370    0.091239    1.719079
O    -0.934720    0.488818   -1.075042
O    -2.418616    2.524428   -1.758198
O     3.106788    2.397203    0.606779
O     2.845396   -1.409626    3.812665
O     5.161722   -1.087586    2.678973
O    -3.307346    0.717427   -0.095094
O    -4.612290    0.457012    2.125497
O    -5.921256    0.924168   -0.061672
O    -4.801296   -1.389747    0.247153
O    -3.023837    0.180695   -2.659268
H    -3.241692   -0.664705   -3.104509
H     0.665622   -2.392964   -1.646769
H     3.155785   -3.141900    0.763665
H    -2.399786    3.487344   -1.576988
H     4.894620    0.156725   -1.202388
H    -4.715244   -2.365617    0.273092
H     2.869348   -1.716970    4.742915
H     6.119864   -1.134369    2.478531
H    -5.122692    0.735712    2.914303
H    -6.605589    1.062570   -0.749373
H     3.054282    3.325231    0.296285
H     1.267033    1.005066   -3.773587
O     0.0         1.0         1.0
H     0.5         1.4         1.4
H    -0.5         1.4         1.4
O     2.0         1.0         3.0
H     2.5         1.4         3.4
H     1.5         1.4         3.4
O    -2.0         1.0         3.0
H    -1.5         1.4         3.4
H    -2.5         1.4         3.4
