69 

Si                     2.45442659     2.68060195    -0.52697955
Si                     3.39596900     0.02283254     0.79792601
Si                    -2.75466769    -4.52804632     0.29959853
Si                     0.21372087    -4.50267393    -0.60455282
Si                     2.52811574    -2.48602156    -0.62955526
Si                     0.03725381     4.49649035     0.11734877
Si                    -2.97397995     4.07583785    -0.33261849
O                      3.57149222     3.71390307    -0.08015391
O                      2.62092930     1.29973805     0.25471293
O                      4.83763426    -0.03620465     0.10773303
O                      2.59152351     2.45387105    -2.09866572
O                      2.73795255    -1.91836112    -2.10518038
O                      2.58672307    -1.29648745     0.43041118
O                     -3.68887549    -3.28181813    -0.04278044
O                      1.01388031     3.26851069    -0.16810526
O                      0.38649974     5.15739433     1.52034629
O                      3.50008058     0.08770896     2.38248983
O                     -1.25392494    -4.15322855    -0.08710453
O                      1.09582259    -3.18614806    -0.50530882
O                      3.65967931    -3.56686119    -0.31550010
O                      0.84461574    -5.65482201     0.30705972
O                     -1.45727566     3.93620612     0.13103166
O                     -3.82041379     2.90113387     0.34533268
O                     -3.58094346     5.47434935     0.15416789
O                     -3.05863890     4.01916413    -1.92273456
O                      0.15937655    -5.00580353    -2.11825359
O                     -2.88190830    -4.85425509     1.86810114
O                     -3.25630104    -5.78464548    -0.53996458
O                      0.20206633     5.63474072    -1.01133904
H                     -3.16398279    -6.56794258    -1.12162044
H                      0.20518443     5.90015194    -1.95470858
H                      2.38240688     2.08092418    -2.98047152
H                     -4.58564165    -3.00552817    -0.32540104
H                      2.94819061    -1.41885430    -2.92169353
H                      0.38451190     5.24132698     2.49674381
H                      5.79202278    -0.08909185    -0.10847545
H                     -2.81736415    -5.47406138     2.62445728
H                     -3.09200792     3.71023518    -2.85216950
H                      4.54919148    -3.97722272    -0.34327314
H                      1.13802743    -6.56073326     0.53864913
H                      0.10730642    -5.04066021    -3.09624802
H                     -4.66432033     2.65146653     0.77648036
H                     -3.72796226     6.43929225     0.06658242
H                      3.72034452     0.58679274     3.19661423
H                      4.31791712     3.82246112    -0.69119242
O                     -1.32586790     1.47833109    -2.42080000
H                     -0.99868222     2.06415273    -1.70555982
H                     -2.27906996     1.33580888    -2.15662317
O                     -2.67542862    -0.72466727     0.85106792
H                     -1.80340295    -0.66403950     0.35335195
H                     -3.02568987    -1.60776962     0.56949736
O                     -0.35849954    -0.58329465    -0.61151470
H                     -0.08541454    -1.50558835    -0.80908916
H                     -0.55354041    -0.13845247    -1.48042177
O                     -3.78695891     0.64089686    -1.18057634
H                     -4.07523363     1.54580624    -0.93738086
H                     -3.49717917     0.28060278    -0.27969717
O                      1.22825998     2.00622753     2.23836388
H                      1.10996685     1.11476446     2.66129758
H                      1.60290761     1.78278137     1.32347280
O                      0.00548639    -0.38620225     3.02624840
H                     -0.73116493     0.29782074     2.95239530
H                      0.03976035    -0.76734181     2.12377857
O                     -2.40690965    -1.90058147     3.54805022
H                     -1.46864942    -1.62421593     3.64703004
H                     -2.65383172    -1.40876007     2.73254772
O                     -1.45418994     1.86887171     2.65575135
H                     -0.54101452     2.16140742     2.36111931
H                     -1.98036060     1.83992078     1.83215109
