48

Si    0.101556    0.482000   -2.482980
Si    2.498913    1.195457   -0.625758
Si    2.435375   -1.554405    4.375050
Si    3.145755   -0.875338    1.466758
Si   -2.867645    1.329839   -2.340333
Si   -5.101734    0.519968   -0.390999
O     0.442169    1.267419   -3.818009
O     1.091625    0.913572   -1.308647
O     3.655267    0.645206   -1.584048
O     0.233056   -1.078303   -2.780574
O     2.883159   -2.141830    0.533601
O     2.579543    0.444428    0.774243
O    -1.383547    0.842008   -2.019878
O    -2.867444    2.877617   -2.703034
O     2.657960    2.750392   -0.338057
O     1.077550   -1.102157    5.079062
O     2.396569   -1.056437    2.867829
O     4.712895   -0.734397    1.734137
O     3.679396   -0.899392    5.136548
O    -3.756173    1.070616   -1.039930
O    -5.061118    0.810202    1.180661
O    -6.370083    1.277358   -1.006507
O    -5.250123   -1.036558   -0.697683
O     2.575521   -3.143731    4.417296
O    -3.472665    0.533884   -3.604104
H    -3.690520   -0.311515   -4.049345
H     0.216794   -2.039774   -2.591605
H     2.706958   -2.788711   -0.181170
H    -2.848614    3.840534   -2.521823
H     4.445792    0.509915   -2.147224
H     0.478536   -1.012598    5.849491
H    -5.164072   -2.012428   -0.671744
H     5.671036   -0.781180    1.533695
H     4.458637   -0.871080    5.730166
H     2.484254   -4.101066    4.228670
H    -5.571520    1.088902    1.969467
H    -7.054416    1.415759   -1.694209
H     2.605454    3.678420   -0.648551
H     0.818205    1.358256   -4.718423
O     0.0         0.0         0.0
H    -0.7         0.5         0.7
H    -0.7        -0.5         0.7
O    -2.5         0.0         0.5
H    -3.2         0.5         1.2
H    -3.2        -0.5         1.2
O    -0.5         0.0         2.5
H    -1.2         0.5         3.2
H    -1.2        -0.5         3.2
