75

 Si                    -3.35312080    -4.09931077     0.14826964
 Si                     1.66429862     3.83148748    -0.21861887
 Si                     3.59176689     1.72082625     1.02056899
 Si                    -0.46110202    -4.78413133     0.79935377
 Si                     2.23379909    -3.67183607    -0.26355318
 Si                     3.63485359    -0.94322827    -0.38874886
 Si                    -1.21336751     4.63156297     0.57777964
 Si                    -3.87624514     3.12459670     0.28609229
 O                     -4.13780438    -4.98167238     1.24020160
 O                     -3.94913219    -2.62705635     0.10110796
 O                      2.34353918     5.20808977     0.17988157
 O                      2.37148626     2.61648563     0.53583857
 O                      4.91320141     2.19258867     0.25277972
 O                      1.78909831     3.65805099    -1.79809495
 O                     -3.52383813    -4.80326563    -1.27780004
 O                      3.53906324    -0.35079361    -1.86644523
 O                      3.30805410     0.19281711     0.68109148
 O                     -1.80671466    -3.97405930     0.52337314
 O                      0.13046069     3.84876929     0.22482610
 O                     -1.05654526     5.38665434     1.96789319
 O                      3.75121022     1.83306325     2.59786891
 O                      0.77156235    -3.88480632     0.33674492
 O                      2.57143468    -2.12179861    -0.19590536
 O                      5.10093279    -1.52695772    -0.14967695
 O                      3.29447107    -4.50166946     0.59834078
 O                     -2.39222015     3.55901035     0.66532006
 O                     -4.19057973     1.72613979     0.99426562
 O                     -4.92907357     4.20411224     0.82219036
 O                     -4.02097557     3.02711825    -1.29770018
 O                      2.28623580    -4.17233262    -1.77819385
 O                     -0.37275534    -5.12089800     2.36829796
 O                     -0.50846297    -6.14425769    -0.02730125
 O                     -1.54261451     5.74053865    -0.54403964
 H                     -0.16544637    -6.84298723    -0.62271485
 H                     -1.68941139     5.98028840    -1.48285301
 H                      1.68450031     3.22674196    -2.67183982
 H                      3.50492312     0.18407056    -2.68690562
 H                     -4.73125979    -2.03689710     0.12086142
 H                     -1.03588781     5.47223050     2.94393150
 H                      5.80628124     2.49411880    -0.01533876
 H                     -0.04257021    -5.66656755     3.11235638
 H                     -3.44710389    -4.90990459    -2.24895374
 H                     -3.98877921     2.71980668    -2.22771248
 H                      6.07615024    -1.57996608    -0.23055257
 H                      3.91387457    -5.23313562     0.80253922
 H                      2.19721907    -4.23228588    -2.75229907
 H                     -4.85766801     1.18610021     1.46728873
 H                     -5.42657556     5.04573037     0.75458959
 H                      3.81586490     2.38512657     3.40499049
 H                      2.92337016     5.98366955     0.02930987
 H                     -4.60969471    -5.81785076     1.43648409
 O                      0.71558971     1.40675061    -3.24559325
 H                      0.84561469     1.14729554    -2.29145344
 H                     -0.28549368     1.53013208    -3.27142770
 O                     -2.13276815    -1.39884490    -2.77509848
 H                     -1.13161166    -1.50116100    -2.85640293
 H                     -2.29452813    -1.43638714    -1.81024107
 O                      0.59356440    -1.40493752    -3.04466435
 H                      0.93330121    -1.26793841    -2.13117454
 H                      0.67339537    -0.47624181    -3.40348639
 O                     -2.08102843     1.37777150    -2.93777478
 H                     -2.05433119     1.41404389    -1.94648457
 H                     -2.20918007     0.38937248    -3.06519059
 O                      0.76070672     0.29647441    -0.65690432
 H                      1.34261136     0.90101977    -0.14590321
 H                     -0.19656423     0.60370651    -0.44631932
 O                     -2.33104169    -0.79202084     1.62045088
 H                     -1.37307501    -1.04960167     1.80317744
 H                     -2.70832043    -1.56060027     1.13366551
 O                      0.33501470    -1.21011520     1.76779675
 H                      0.62091363    -2.14255860     1.67985945
 H                      0.60154829    -0.82287968     0.89244618
 O                     -1.65838295     0.97533936    -0.16676520
 H                     -1.64732858     1.84073778     0.30393107
 H                     -2.04932807     0.31181171     0.52536601
