48
PBE96/6-31G* unoptimized
Si                     2.12140840    -0.12759953    -0.52664460
Si                     1.11425517    -2.80871878     0.69926609
Si                    -1.15493427    -4.11562867    -0.79337771
Si                     1.44075305     2.79601434     0.21127395
Si                    -1.12715609     4.43267296    -0.20602574
O                      3.63756665    -0.07457622    -0.06441495
O                      1.35079939    -1.31559905     0.20845188
O                      2.18360100    -3.76038643    -0.01423194
O                      2.09366650    -0.33583097    -2.10660343
O                     -0.61540244    -3.76763696    -2.25335916
O                     -0.35197812    -3.28133332     0.30260215
O                      1.39706190     1.23829756    -0.12758283
O                      2.12165411     3.02765944     1.62897852
O                      1.22172770    -2.88007711     2.28332777
O                     -2.70196331    -3.73033123    -0.66958514
O                     -0.99059071    -5.68129897    -0.53079719
O                     -0.06262445     3.33195826     0.22992952
O                     -2.53768033     4.05899565     0.44726378
O                     -0.69279933     5.87527723     0.33381661
O                     -1.21442715     4.49793335    -1.79567022
O                      2.31098621     3.59685118    -0.88328702
H                      2.49290329     3.82942589    -1.81774766
H                      1.70103165    -0.45572759    -2.99647023
H                     -0.12532988    -3.49427556    -3.05679132
H                      2.16570976     3.05990956     2.60745586
H                      2.88048887    -4.40909313    -0.24645314
H                     -1.43107471     4.31514629    -2.73378152
H                     -3.64161081    -3.99731855    -0.74819467
H                     -0.57556472    -6.56742387    -0.58499877
H                     -3.34726367     4.39818785     0.88306449
H                     -0.18175916     6.70968127     0.27897768
H                      1.70485860    -2.66878933     3.10936736
H                      4.60022722    -0.22253847    -0.17300679
O                     -2.21315543     0.83984077     1.82155264
H                     -2.60717268    -0.06999699     1.81313381
H                     -1.83018753     1.03883174     0.89657118
O                     -3.81637067    -1.55295402     1.42754425
H                     -4.09114692    -0.94539340     0.69505353
H                     -3.04692364    -2.06106953     1.05265898
O                     -4.51522151     0.87728644     0.28232946
H                     -3.79275980     1.14446814     0.94802954
H                     -4.13569752     1.07697270    -0.57932166
O                     -1.10907632    -1.56662193     1.47679576
H                     -0.94941875    -0.59619637     1.33442592
H                     -1.02332168    -2.01714395     0.57596290
O                     -1.40589906     1.38252944    -0.41523852
H                     -0.44662516     1.51618313    -0.21653240
H                     -1.80052712     2.15791531     0.06681767
