45 

Si    0.132894    0.619037   -3.429360
Si    2.530251    1.332494   -1.572138
Si    0.134301   -0.819409    5.386159
Si    2.466713   -1.417368    3.428670
Si    3.177094   -0.738301    0.520378
Si   -2.836307    1.466876   -3.286712
Si   -5.070396    0.657005   -1.337378
O     0.473507    1.404456   -4.764388
O     1.122963    1.050609   -2.255026
O     3.686605    0.782243   -2.530428
O     0.264394   -0.941266   -3.726954
O     2.914497   -2.004793   -0.412778
O     2.610881    0.581465   -0.172136
O    -1.370305   -0.929338    4.869314
O    -1.352209    0.979045   -2.966257
O    -2.836106    3.014654   -3.649413
O     2.689298    2.887429   -1.284437
O     1.108888   -0.965121    4.132682
O     2.427907   -0.919400    1.921449
O     4.744233   -0.597360    0.787758
O     3.710734   -0.762355    4.190169
O    -3.724835    1.207653   -1.986310
O    -5.029780    0.947239    0.234281
O    -6.338745    1.414395   -1.952887
O    -5.218785   -0.899521   -1.644063
O     2.606859   -3.006694    3.470916
O     0.330747    0.603332    6.107283
O     0.395089   -1.982926    6.441508
O    -3.441327    0.670921   -4.550484
H     0.882491   -2.727843    6.851311
H    -3.659182   -0.174478   -4.995724
H     0.248132   -1.902737   -3.537984
H    -2.278656   -1.215670    5.100209
H     2.738296   -2.651674   -1.127550
H    -2.817276    3.977571   -3.468203
H     4.477130    0.646952   -3.093604
H     0.795539    1.187555    6.742147
H    -5.132734   -1.875391   -1.618123
H     5.702374   -0.644143    0.587316
H     4.489975   -0.734043    4.783786
H     2.515592   -3.964029    3.282291
H    -5.540182    1.225939    1.023088
H    -7.023078    1.552796   -2.640589
H     2.636792    3.815457   -1.594931
H     0.849543    1.495293   -5.664802
