48
PBE96/6-31G* unoptimized
Si                     2.27629492    -0.16093264    -0.37942691
Si                     1.19656540    -2.83214276     0.80566200
Si                    -0.95084779    -4.17240182    -0.83065764
Si                     1.52827358     2.76771311     0.26774518
Si                    -1.01095360     4.38280621    -0.35735275
O                      3.75441706    -0.09248240     0.19125083
O                      1.46040407    -1.34407127     0.31343168
O                      2.32007932    -3.78631027     0.18474971
O                      2.36491689    -0.38980789    -1.95427996
O                     -0.30814437    -3.84002442    -2.25199372
O                     -0.23433756    -3.31897964     0.30962427
O                      1.51760278     1.20549048    -0.05250630
O                      2.10277000     3.02196059     1.72804790
O                      1.18863298    -2.88227886     2.39415726
O                     -2.50479134    -3.79516789    -0.82503957
O                     -0.79784900    -5.73348138    -0.53586483
O                      0.02473746     3.29448596     0.16967715
O                     -2.46336867     4.00886138     0.19641282
O                     -0.62471029     5.83496674     0.19332731
O                     -0.98243464     4.42689833    -1.94986249
O                      2.47176787     3.55968683    -0.77115099
H                      2.72010526     3.78124947    -1.69291020
H                      2.03884307    -0.52367792    -2.86869503
H                      0.23775624    -3.57406175    -3.02118627
H                      2.07519790     3.06717282     2.70661548
H                      3.03544778    -4.43362415     0.01260883
H                     -1.12914355     4.23061402    -2.89872974
H                     -3.43478857    -4.06899588    -0.96829631
H                     -0.37531821    -6.61763432    -0.54782498
H                     -3.30434511     4.34863184     0.56751046
H                     -0.11543017     6.67175404     0.16468759
H                      1.60913340    -2.65729171     3.25028785
H                      4.72319824    -0.23584587     0.15505231
O                     -2.76333368     0.88286757     1.85817987
H                     -3.11505599    -0.03738616     2.04927335
H                     -2.27589275     0.73071326     1.01368184
O                     -4.07634429    -1.57963314     1.11760562
H                     -4.31849103    -0.89117583     0.46322583
H                     -3.12321381    -1.80668331     0.92080810
O                     -4.62995829     0.92300837    -0.11657587
H                     -4.07194992     1.09488034     0.67499806
H                     -3.98658628     1.05404060    -0.84610296
O                     -1.24025532    -1.34152892     1.41190912
H                     -0.94553512    -0.42216325     1.32590941
H                     -0.93071942    -1.81496619     0.59699671
O                     -0.65515160     1.50761143     0.16190456
H                      0.32255020     1.61465897     0.21191942
H                     -0.97192713     2.41931005     0.37703653
