307
(D)
Si 8.366178084 1.087060879 8.847283157
Si 5.961418155 0.452246762 10.858522687
Si 5.396749502 1.265592120 0.390136130
Si 2.247976257 1.286255839 0.139915518
Si 1.315125849 0.523198039 10.733590241
Si 3.598018672 1.204127293 8.969858054
Si 8.462820274 16.428552912 9.006136557
Si 6.133346067 17.118642471 10.954718755
Si 5.400751699 16.591335488 0.522896561
Si 2.376749151 16.452009853 0.429096854
Si 1.417742003 17.325635053 10.963553944
Si 3.674615436 16.458896499 9.056127816
Si 1.531513013 18.852297676 2.042028594
Si 3.941402779 19.405161542 4.089595475
Si 4.339093959 18.790866478 6.978161853
Si 7.550536064 18.604635916 6.934569407
Si 8.612213225 19.388819886 4.196872398
Si 6.353603885 18.790768376 2.346664618
Si 1.567749630 3.415286463 2.346613362
Si 3.898753917 2.724820613 4.396724484
Si 4.568027709 3.398663833 7.235096449
Si 7.610127142 3.441666965 7.079725038
Si 8.573818638 2.585133812 4.221080372
Si 11.496790974 11.092620939 4.582308151
Si 13.905650608 10.450839386 2.606619222
Si 14.420630264 11.181769653 13.061085586
Si 17.624566721 11.283529358 13.186241127
Si 18.666530622 10.391400874 2.537635612
Si 16.405734479 11.102420997 4.373041259
Si 11.543077834 6.421096876 4.436517631
Si 13.846401506 7.235164966 2.452637101
Si 14.575568909 6.539983650 12.920475490
Si 17.630294815 6.628302377 12.994332520
Si 18.682059685 7.300003270 2.413620838
Si 16.329550368 6.511478930 4.264278688
Si 18.408086646 8.923562083 11.237510377
Si 16.019626427 9.360183155 9.253390292
Si 15.668621545 8.798240569 6.366905774
Si 11.298538736 9.475290712 9.358428106
Si 13.622043183 8.783577195 11.114523552
Si 18.476089767 13.375415713 11.162994235
Si 16.155234632 12.596194553 9.141941352
Si 12.347955226 13.365059477 6.255501801
Si 11.336181298 12.571452733 9.114498306
Si 13.685242626 13.410204737 10.993887717
Si 11.553921749 18.815323145 4.611290778
Si 13.929448958 19.320555770 2.547565129
Si 14.414861925 18.750548915 12.994348044
Si 17.631475112 18.615226959 13.119999158
Si 18.678883195 19.415679756 2.525363000
Si 16.390199009 18.717272016 4.314582575
Si 11.534691419 3.326071087 4.418360781
Si 13.890400452 2.649154268 2.419903487
Si 14.550799693 3.366587043 12.890799089
Si 18.646461771 2.656703750 2.531682720
Si 16.287759449 3.466608372 4.283547933
Si 18.472201895 1.124917135 11.218297207
Si 16.075714055 0.605673624 9.244159636
Si 15.572205204 1.176236258 6.313172627
Si 12.413040541 1.266877397 6.527284166
Si 11.316831236 0.536715430 9.266264738
Si 13.631228075 1.256700053 11.087863545
Si 18.520163595 16.488079378 11.055213174
Si 16.164764503 17.267102543 9.132181799
Si 15.453503576 16.575270428 6.183060960
Si 12.380686791 16.433181618 6.261067924
Si 11.372266348 17.318196608 9.102372773
Si 13.690753281 16.455882995 10.961285525
Si 8.353146165 8.804357522 8.757020844
Si 6.055015799 9.294515460 10.861847961
Si 5.485076955 9.004052543 0.388527628
Si 2.367432715 8.654610980 0.167600528
Si 1.275066232 9.424991413 10.832669140
Si 3.643364698 8.670051808 9.087116287
Si 8.474135507 13.366556081 8.853620008
Si 2.416734287 13.369568591 0.436788198
Si 1.370555154 12.546240103 11.003024559
Si 3.580469789 13.456778346 9.081323187
Si 1.582501239 11.078276148 2.119256400
Si 3.927657476 10.562297267 4.187417576
Si 4.434719832 11.095656332 7.133040233
Si 7.631083769 11.262004013 6.821555191
Si 8.640298285 10.402996419 4.055130369
Si 6.334702716 11.248294597 2.350096956
Si 1.614360245 6.511785175 2.312497150
Si 3.902047936 7.339867335 4.361232768
Si 4.517795515 6.545889673 7.226023310
Si 7.547908576 6.488209039 7.051833795
Si 8.641665787 7.330816076 4.255227364
Si 6.237530344 6.672651079 2.522391572
Si 17.627600655 3.287631393 13.054191735
Si 6.232410719 12.556151795 11.017482214
O 7.132787245 1.020420123 9.896794344
O 6.123780157 1.188383602 12.298452119
O 3.819112408 0.928500274 0.175123916
O 1.753430654 1.481985985 11.979363793
O 2.041073714 1.013835146 9.367794734
O 4.469869854 0.737360032 10.265110029
O 7.427530506 16.482163007 10.256977715
O 6.127552502 16.573844665 12.482435045
O 3.885853943 17.130436609 0.359622623
O 1.760564493 16.488991150 12.311417301
O 2.227979084 16.675789033 9.721887501
O 4.799154069 16.486486264 10.252865922
O 6.119752731 18.722684146 10.895517448
O 1.765206594 18.896543301 11.151018056
O 8.436899792 2.580433270 8.202974949
O 8.242046890 19.887077514 7.657937553
O 7.863944034 17.241604163 7.745877648
O 3.902369290 2.747874600 8.576003323
O 3.893459700 0.278740217 7.671807159
O 3.895186197 17.499639272 7.855070749
O 19.763135162 0.638525082 10.356127276
O 19.904040988 17.134445660 10.525880996
O 2.868922747 18.979773655 2.947350804
O 3.609093441 18.700811564 5.526994315
O 5.945907712 18.798467896 6.863698526
O 8.162676478 18.428282421 5.440927840
O 7.882549877 18.894159600 2.837636435
O 5.385211624 18.789310973 3.651691804
O 2.598562077 3.224175074 3.565550920
O 3.610788703 3.039461413 5.976909094
O 6.090058904 2.843561528 6.965680198
O 8.338426391 3.409187021 5.626173051
O 7.806647076 3.221423042 2.952205487
O 5.200230168 3.501423463 3.919079326
O 4.074469792 1.107386912 4.193639601
O 8.160412390 1.016849247 4.545941321
O 1.472949264 17.331817076 1.440644753
O 1.480597868 0.002913612 0.797609001
O 1.955339911 2.647915356 0.966757541
O 6.300082676 17.325823099 1.619156842
O 5.942011831 19.894823399 1.255116491
O 5.744072337 2.666072199 1.067879355
O 10.185038031 19.166803162 3.832206660
O 10.189295109 2.572920005 3.923309692
O 12.785233103 11.059245142 3.578940478
O 13.727496454 11.147763257 1.143573737
O 16.033243989 11.064613892 13.038385073
O 18.080452044 11.332679490 1.348666472
O 17.902117291 10.682514687 3.922308912
O 15.402874745 10.765781854 3.126110211
O 12.615267346 6.533847992 3.211815746
O 13.724692974 6.811395663 0.885048169
O 16.103666569 7.175449659 13.034402828
O 18.264174717 6.446957815 1.072977475
O 17.803404827 6.808519063 3.664533328
O 15.283592479 6.731701561 3.030103514
O 13.715807210 8.844179998 2.502378634
O 18.438312858 8.853935681 2.043816830
O 11.392294554 12.612275133 5.174631300
O 11.579883275 10.039617198 5.795480849
O 12.043365546 7.094099761 5.790859297
O 16.297945641 12.651890262 4.759478863
O 16.128126446 10.218669395 5.714064030
O 16.127216045 7.481032234 5.531674350
O 0.197561279 10.686534882 2.862277214
O 0.195485598 7.090397154 2.854158819
O 17.057092385 8.762199102 10.355789489
O 16.395642390 8.661197350 7.843528447
O 14.092138920 8.845583076 6.521083153
O 12.049203961 8.471781157 8.204087880
O 12.052068508 9.023627190 10.717457570
O 14.473521580 8.935160812 9.717014215
O 17.424771187 13.089010401 9.998442646
O 16.312410735 13.172684303 7.670382539
O 13.809890588 12.711693323 6.335370742
O 11.675399027 13.366366245 7.754061084
O 12.237940743 13.079593000 10.354720723
O 14.826641785 13.169401963 9.887056740
O 16.122686668 10.963086806 9.191872790
O 11.590644099 10.965448619 8.839113237
O 18.547964142 7.456211017 11.961929491
O 18.351521092 10.047913688 12.404763325
O 18.069351447 12.712400534 12.583199935
O 13.808069387 7.277238018 11.683043161
O 13.993424854 9.854652411 12.230975033
O 13.905829405 12.519316955 12.324307138
O 9.749256799 9.119088463 9.550799630
O 9.813932864 12.794837116 9.616691768
O 12.793736447 18.794073600 3.569993407
O 13.712372636 18.696196388 1.073368526
O 16.026330393 18.705195313 13.040671425
O 18.176561648 18.519481727 1.258733381
O 17.905948301 18.883839382 3.839381420
O 15.390938029 18.794196974 3.040209285
O 12.611454156 3.226175918 3.213712921
O 13.717502072 3.138802195 0.890012995
O 16.009706326 2.692868192 12.943371662
O 18.256175127 3.510653017 1.242702554
O 17.801056446 3.128150460 3.843044347
O 15.289372830 3.227907330 3.022719711
O 13.908372599 1.029977613 2.504413385
O 18.348974094 1.075507918 2.227289329
O 11.479035465 17.325385719 5.262807337
O 11.679561201 0.007815730 5.806559028
O 12.143393656 2.675827087 5.785171522
O 16.307886364 17.231552780 4.988390796
O 16.120601377 19.816648784 5.453332141
O 15.840768900 2.568193197 5.548384497
O 0.210266239 19.153680766 2.935737304
O 0.178155155 2.849831106 2.947482359
O 17.236912570 1.195270447 10.174952371
O 16.314553089 1.202459359 7.754969522
O 13.991922203 0.918934626 6.519927531
O 11.852606141 1.470510032 8.038539233
O 12.124416003 0.917210776 10.615355451
O 14.636503463 1.102711443 9.812978757
O 17.500909448 16.672153485 9.812308268
O 16.219655016 16.758534447 7.580102427
O 13.913210916 17.047836457 6.250144853
O 11.839937621 16.485585237 7.785034833
O 12.231390546 16.766132084 10.351188949
O 14.824997579 16.669539553 9.812419481
O 16.127755438 18.880439836 9.192416675
O 11.601989766 18.895141218 8.825654891
O 18.645219005 2.579283108 11.865538166
O 18.264138077 19.908957460 12.398154933
O 18.069088958 17.231132314 12.409299761
O 13.632005329 2.767145189 11.679579507
O 14.000618959 0.259832187 12.311269821
O 13.905739506 17.424006556 12.226907671
O 9.744938454 0.747517476 9.637569248
O 9.824348109 17.130986418 9.539660290
O 7.226715252 8.664287864 9.908275888
O 6.396321623 8.747798793 12.404834121
O 3.955528100 8.840869003 -0.099878935
O 1.576086791 8.485006231 12.132379929
O 2.121508495 8.941051513 9.548206540
O 4.638915200 8.661472354 10.363250780
O 7.231394193 13.176928561 9.798043195
O 6.396110991 13.354151243 12.488760386
O 3.877908412 12.718140997 0.439788265
O 1.766043513 13.438195665 12.303014785
O 2.127611401 13.082924690 9.650926017
O 4.624991501 13.448648212 10.433932960
O 5.934542824 10.876656893 10.799136963
O 1.671328241 10.960402033 11.242160435
O 8.529078678 7.368415435 8.023399714
O 8.165370038 9.963064352 7.658036453
O 8.256299150 12.625573635 7.412948757
O 3.706455421 7.181496965 8.472078440
O 3.996038412 9.765820888 7.940248860
O 3.994440457 12.429418646 7.944763749
O 19.739259527 9.216064250 10.353611540
O 19.839400762 12.709130929 10.616447905
O 2.776779301 11.149852851 3.211740935
O 3.696548335 11.145110919 5.693537586
O 6.027056077 11.151446562 6.955812644
O 8.067076033 11.331799556 5.261994052
O 7.787771135 10.592655579 2.680942382
O 5.379013213 11.047563036 3.659478435
O 2.697993332 6.716350676 3.483483821
O 3.634461114 6.897915918 5.899185983
O 6.043127336 7.170840851 7.122105252
O 8.155540637 6.448989702 5.539214733
O 7.796565198 6.910362543 2.939344023
O 5.373561823 6.811362431 3.914732528
O 3.884795980 8.945888761 4.192410774
O 8.438103715 8.895256751 4.637503257
O 1.395083506 12.536549091 1.417458839
O 1.850636463 9.951945786 0.979875156
O 2.053434096 7.288177892 0.967160770
O 6.398036507 12.799795549 1.971393254
O 5.747944592 10.495763368 0.986786806
O 5.843545837 7.909395818 1.514965236
O 10.178713082 10.774746154 3.661678466
O 10.188860432 7.099079286 3.836749251
O 8.721611231 14.931351157 8.476044358
O 3.707345799 14.940368190 8.462971977
O 5.380714082 15.027082659 1.165924150
O 2.485182497 14.928942184 0.972667875
O 1.478128355 4.967150174 1.878445508
O 6.107852455 5.260401737 1.792798189
O 4.629403749 4.976859891 7.568756051
O 7.525658729 4.973544121 7.654604517
O 11.212602911 4.869792327 4.733637762
O 16.214956654 4.993710165 4.818553165
O 14.650664623 4.973582128 12.579058164
O 17.619653122 5.061058530 12.312743289
O 18.645888941 14.941180666 11.495564997
O 13.725441796 14.938525145 11.515395525
O 15.496233927 14.963316513 5.629713925
O 12.419342266 14.918223588 5.717620294
O 8.157587887 6.437818204 -14.096184486
O 8.253641430 4.153179987 13.557696329
Al 6.152676307 3.638472851 2.478864569
Al 12.411209129 8.661269782 6.356835735
Al 15.461340387 13.159233773 6.189122522
Al 5.530386741 13.245824072 0.538715936
H -14.217426185 -4.898807854 2.050951977
H 15.928902140 14.930133935 4.748550974
H 12.956319692 8.247715631 8.532944190
H 8.099712694 5.442599170 -0.173560380
H 9.451682627 7.613249746 -15.203558011
H 10.029441463 5.980650022 -14.775117593
H 11.319811110 7.571103863 -13.477321644
H 10.266765433 6.725192797 -12.359667701
H 8.677298340 8.708854062 -12.332783395
H 9.709539358 9.548160253 -13.505457394
H 10.300901742 9.201092242 -11.868787558
H 7.519567636 7.173601041 -13.933076363
H 8.433551313 3.995924359 14.516797723
H 7.428553430 3.647338651 13.381802489
C 9.552526433 6.888717406 -14.389102222
C 10.265201314 7.458691826 -13.178055281
C 9.706031103 8.800636409 -12.700873576
