304
State D
Si 8.434386415 1.110751266 8.819423258
Si 6.077524522 0.517533645 10.859870861
Si 5.467452857 1.219776651 0.362016444
Si 2.351470852 1.258339003 0.160912513
Si 1.363578076 0.551485991 10.818714504
Si 3.645879282 1.207770794 9.008083446
Si 8.461749033 16.423787874 9.014544648
Si 6.121511245 17.163434775 10.941541315
Si 5.400856463 16.588887370 0.509962475
Si 2.374342576 16.451776115 0.427125546
Si 1.425162962 17.354237233 10.974461334
Si 3.656804539 16.461849338 9.039766753
Si 1.523058263 18.846439682 2.049835204
Si 3.938125999 19.402995750 4.091130196
Si 4.348295611 18.758812117 6.981897810
Si 7.560654069 18.591539953 6.938093758
Si 8.619328223 19.331683602 4.223659307
Si 6.383786035 18.773926525 2.331696013
Si 1.608375199 3.359936063 2.386682735
Si 3.916547904 2.720389814 4.414310553
Si 4.556650945 3.383626529 7.270603317
Si 7.590403278 3.426541621 7.102980750
Si 8.619486521 2.493152651 4.311700701
Si 11.504898404 11.092050555 4.584728260
Si 13.923561127 10.468512700 2.608686817
Si 14.416392772 11.178857218 13.056382720
Si 17.619573265 11.294146147 13.191672792
Si 18.664997984 10.386466770 2.538593026
Si 16.422198887 11.146568848 4.386665346
Si 11.566658965 6.375429678 4.464713570
Si 13.831826139 7.242207366 2.456267772
Si 14.551337290 6.539802217 12.924815174
Si 17.612295985 6.632233356 12.995131010
Si 18.673945244 7.276866521 2.422372591
Si 16.313502600 6.516957530 4.308089711
Si 18.396786405 8.935901057 11.258639993
Si 15.976944287 9.389928016 9.265446268
Si 15.664955862 8.828121067 6.377313024
Si 11.298492649 9.469754352 9.364009064
Si 13.608613415 8.769957069 11.122565679
Si 18.470712691 13.378009491 11.160434130
Si 16.090870991 12.624799102 9.152115420
Si 12.350013418 13.371612413 6.253329747
Si 11.347306964 12.556943625 9.103507572
Si 13.666194446 13.429679171 10.999879315
Si 11.554648380 18.851752918 4.628352639
Si 13.927148046 19.319682935 2.549096051
Si 14.419002527 18.733077185 12.993788188
Si 17.632791516 18.610293310 13.117340066
Si 18.669283779 19.416975711 2.521980234
Si 16.390033661 18.719003699 4.312908660
Si 11.586301119 3.272252720 4.460041067
Si 13.896116317 2.650001423 2.419071124
Si 14.544205389 3.381986721 12.890369368
Si 18.634049254 2.653514803 2.560216125
Si 16.270603889 3.438497777 4.326709991
Si 18.486272201 1.126429443 11.228031720
Si 16.082349065 0.604944309 9.250668913
Si 15.554376311 1.146187945 6.338986387
Si 12.469179295 1.260910929 6.552111224
Si 11.353165271 0.543084893 9.263878319
Si 13.640283789 1.257451960 11.082278379
Si 18.541435501 16.507488067 11.041098944
Si 16.161847523 17.266294847 9.136563684
Si 15.443346881 16.594526546 6.186961059
Si 12.353463625 16.448349450 6.266243792
Si 11.366008948 17.319033347 9.106759686
Si 13.689517595 16.444944366 10.971682161
Si 8.360317054 8.803086508 8.768719480
Si 6.060648194 9.291683673 10.857257607
Si 5.537251880 8.952062191 0.361835545
Si 2.376693730 8.636189256 0.196780282
Si 1.295672929 9.421284914 10.848882399
Si 3.643347090 8.668796207 9.089092775
Si 8.475283217 13.358924359 8.844003060
Si 2.414602226 13.369254563 0.435117076
Si 1.363000561 12.544679713 11.002414850
Si 3.577855206 13.453993205 9.086737320
Si 1.581319073 11.077341507 2.118498156
Si 3.926490015 10.557055704 4.190967045
Si 4.436595066 11.095827965 7.143762180
Si 7.633507736 11.257416718 6.831711152
Si 8.649791593 10.418982112 4.058202342
Si 6.337943722 11.236528406 2.362413044
Si 1.603342597 6.437768804 2.302057952
Si 3.881809308 7.309022734 4.329963226
Si 4.531347893 6.524503327 7.231259233
Si 7.562669180 6.472825906 7.065664956
Si 8.671709666 7.346366103 4.306911885
Si 6.341789795 6.713323180 2.512118156
Si 17.642106949 3.304753918 13.062914391
Si 6.236024494 12.538998066 10.998790853
O 7.229861868 1.105014967 9.898730429
O 6.292669671 1.196238166 12.318987555
O 3.908861386 0.827232714 0.080536252
O 1.761673841 1.553841330 12.050044464
O 2.116950759 1.006475960 9.463772232
O 4.625501289 0.915774880 10.266518492
O 7.413905949 16.488397644 10.258831296
O 6.125061163 16.579261967 12.466049962
O 3.885898761 17.130111902 0.360123371
O 1.759468945 16.487817967 12.309274432
O 2.218249509 16.685911744 9.722411910
O 4.745750611 16.581235769 10.259590308
O 6.127276280 18.779834064 10.890657088
O 1.785187610 18.915547204 11.235361546
O 8.530031565 2.575788809 8.123072108
O 8.246889272 19.880807531 7.661762501
O 7.865573271 17.234761799 7.754512400
O 3.809412421 2.755360367 8.566835306
O 3.894718267 0.195737920 7.763229106
O 3.895789012 17.412748000 7.768954045
O 19.822195459 0.645407171 10.432972109
O 19.903241837 17.222352225 10.529921801
O 2.794065782 18.978407804 3.032740472
O 3.616150865 18.704587875 5.530208557
O 5.954888159 18.799405004 6.860985945
O 8.163869385 18.345383765 5.444672085
O 7.893434873 18.883338986 2.851367695
O 5.363085752 18.792261563 3.582032563
O 2.589739196 3.225869912 3.651676591
O 3.626787417 3.038722412 5.986146700
O 6.080099431 2.773142066 7.123129111
O 8.250113889 3.407225532 5.623006523
O 7.884650078 3.119131547 3.031184247
O 5.215830087 3.506479748 3.913909163
O 4.080303330 1.106724020 4.192976008
O 8.159650506 0.939997609 4.636588147
O 1.472718617 17.329661155 1.441666094
O 1.563301371 -0.010453258 0.803203785
O 2.134946228 2.572428832 1.069520398
O 6.301966708 17.316204144 1.610893952
O 6.112994949 19.906716775 1.239377177
O 5.578898139 2.593771412 1.161317805
O 10.187276631 19.164820341 3.832090084
O 10.251570858 2.412163383 4.107589224
O 12.787011860 11.056557591 3.577534557
O 13.727458891 11.149071624 1.140372050
O 16.031194388 11.070618469 13.042449122
O 18.081204811 11.331971731 1.352678470
O 17.902880389 10.682335523 3.921124113
O 15.403532961 10.864576013 3.132265761
O 12.601423712 6.533958176 3.215180810
O 13.724473450 6.811474078 0.896260691
O 16.085391480 7.170913214 13.041538906
O 18.260140409 6.446480744 1.069116094
O 17.782605803 6.810143146 3.674872838
O 15.218460286 6.726072710 3.120744117
O 13.801809141 8.854592890 2.506758079
O 18.448817235 8.841448563 2.050626667
O 11.394250061 12.613465750 5.174214788
O 11.577258840 10.037359014 5.794933403
O 12.052384140 7.090340481 5.799322758
O 16.389531522 12.695740919 4.815584752
O 16.131790016 10.229833696 5.703313913
O 16.128824789 7.468223017 5.605980899
O 0.198484622 10.684599826 2.862291850
O 0.167457869 6.927579720 2.863071060
O 17.058180337 8.850521416 10.356509484
O 16.400403913 8.745022083 7.848009998
O 14.089549875 8.928684944 6.519621646
O 12.048649779 8.469239193 8.203679882
O 12.051954336 9.026829430 10.717792077
O 14.471030961 8.850780803 9.719585523
O 17.332089856 13.083558298 10.080143919
O 16.316257556 13.174152118 7.677420360
O 13.813704011 12.715790275 6.331937922
O 11.678886306 13.368596806 7.751049536
O 12.223901742 13.081579671 10.357710995
O 14.742103901 13.263937662 9.809568820
O 15.939936133 10.997041458 9.206544348
O 11.598361687 10.957433454 8.837169608
O 18.538480837 7.458422625 11.961654157
O 18.349846557 10.058480137 12.419682693
O 18.073109845 12.720410673 12.587038540
O 13.806216903 7.272502302 11.685019100
O 13.995516748 9.854167578 12.225542169
O 13.909188608 12.519755179 12.315366781
O 9.751322150 9.120862765 9.550078068
O 9.806639882 12.720882914 9.550570531
O 12.790381470 18.792385633 3.575842326
O 13.712483693 18.698042009 1.072535792
O 16.028600897 18.702584593 13.044156476
O 18.175475115 18.517601415 1.256979277
O 17.905089308 18.883444177 3.838792037
O 15.389730063 18.794088597 3.039701886
O 12.608937139 3.223171059 3.208773217
O 13.718789673 3.137034198 0.891509499
O 16.018876227 2.755761741 12.941359028
O 18.255172978 3.510668968 1.263083633
O 17.794280245 3.038988713 3.920271723
O 15.294983958 3.224581065 3.032526327
O 13.907456302 1.028861985 2.505029420
O 18.348029579 1.075829597 2.224222380
O 11.411926451 17.397513949 5.347818073
O 11.670578355 0.079780135 5.791171675
O 12.331382751 2.678629498 5.788700272
O 16.306118538 17.236183012 4.989295592
O 16.125540701 19.820734748 5.449021513
O 15.752778323 2.576540667 5.612005158
O 0.198788161 19.157599481 2.929683207
O 0.180106053 2.848621000 2.945035094
O 17.249522570 1.192406012 10.178089498
O 16.320984272 1.201484428 7.761580926
O 14.003236506 0.748151674 6.605645648
O 11.860791076 1.478289138 8.034576646
O 12.134871373 0.919005540 10.618094142
O 14.642227459 1.106234399 9.808395325
O 17.502201173 16.672862460 9.812001649
O 16.217752983 16.760993973 7.581641240
O 13.898620361 17.050370951 6.251974163
O 11.771285051 16.482530483 7.775955815
O 12.233574404 16.763619908 10.349670372
O 14.821469113 16.666000353 9.816085655
O 16.127784462 18.879605481 9.193569397
O 11.602229402 18.895528889 8.825506457
O 18.645466662 2.583117084 11.869702897
O 18.262561462 19.906251423 12.400098988
O 18.070039689 17.224283110 12.406640704
O 13.635355044 2.761293978 11.683049908
O 14.001882056 0.189322259 12.235406468
O 13.905173472 17.415242432 12.229521078
O 9.804367856 0.824524748 9.633942589
O 9.820019146 17.131904618 9.545811066
O 7.223792674 8.664080201 9.900913372
O 6.396680595 8.761440943 12.380914354
O 3.977548483 8.747965741 -0.000022026
O 1.662894429 8.483136301 12.128131887
O 2.119620948 8.940491403 9.546276477
O 4.636242719 8.660573277 10.362067879
O 7.234448027 13.180501542 9.794364218
O 6.398455816 13.272839969 12.494764477
O 3.876180994 12.717025470 0.440711152
O 1.764537172 13.437414637 12.302121808
O 2.124788220 13.082607069 9.653218629
O 4.626338022 13.446491896 10.435263007
O 5.931053671 10.872932769 10.791720158
O 1.673399842 10.962785069 11.243432576
O 8.528832973 7.367679995 8.022573255
O 8.167979280 9.956681854 7.657119700
O 8.252648350 12.626831548 7.405314097
O 3.710046063 7.180090593 8.460595546
O 3.992951289 9.762919521 7.939478980
O 3.990898740 12.431699475 7.945461659
O 19.751806252 9.216436507 10.424802543
O 19.831658382 12.703659806 10.611709140
O 2.778030831 11.146514243 3.213606628
O 3.701778256 11.141100143 5.697351355
O 6.032063742 11.154481169 7.022997302
O 8.063004568 11.333013739 5.265652617
O 7.794455554 10.589921625 2.684227612
O 5.378293195 11.044103595 3.669256834
O 2.689915902 6.637405665 3.481051205
O 3.704642156 6.822486992 5.863339188
O 6.049993871 7.114382571 7.053019923
O 8.154534576 6.444286064 5.544724227
O 7.873448606 6.908956568 2.950327006
O 5.303663533 6.719751786 3.742105690
O 3.889905890 8.925139106 4.191202529
O 8.434843040 8.909328690 4.640861328
O 1.395271718 12.535722026 1.418289155
O 1.853293204 9.950661790 0.979263574
O 1.962064109 7.282015574 0.975603382
O 6.395127709 12.786188286 1.971924497
O 5.744103431 10.400886090 1.067252628
O 6.017554241 7.742043998 1.338309098
O 10.184016979 10.776486339 3.661532766
O 10.206615387 7.096735838 3.912927744
O 8.723289599 14.928581079 8.480233334
O 3.707705527 14.935962225 8.471202625
O 5.381722748 15.024525967 1.160587529
O 2.485836459 14.928573697 0.971896979
O 1.566290335 4.891644921 1.867020380
O 6.301447217 5.159711265 1.786675557
O 4.632602333 4.963765405 7.577109588
O 7.521059289 4.962827568 7.661247089
O 11.211376837 4.814390856 4.736428390
O 16.220932610 4.981149621 4.822949358
O 14.647420742 4.978476520 12.578232716
O 17.620900394 5.064728170 12.313323456
O 18.730408901 14.947570220 11.417333048
O 13.720638757 14.942771708 11.584353197
O 15.485879528 14.994781054 5.625518985
O 12.415762852 14.929679693 5.716993799
O 10.289011695 7.281524635 -12.672924387
Al 6.255892730 3.398802499 2.538908294
Al 12.417336594 8.664855939 6.365646111
Al 15.464756778 13.187115876 6.197960850
Al 5.528366960 13.239090038 0.540190405
H -14.212621705 -4.892383014 2.043949835
H 15.962075364 14.957097790 4.767309369
H 12.939137960 8.210240325 8.550780054
H 9.825778882 8.125127623 0.588524946
H 10.343395755 4.215714791 -12.378684359
H 6.844386204 5.129524123 -12.416222207
H 9.409860163 4.978688953 -13.772577133
H 8.573007181 2.754128355 -14.433135338
H 8.742395156 1.043433387 -12.498953194
H 10.310762370 1.752946305 -12.054273852
H 10.109386160 0.890881113 -13.604531118
H 10.352718193 7.183161252 -11.707814810
C 9.667417213 4.075894064 -13.221085248
C 9.237590273 2.856186357 -13.575493157
C 9.622983037 1.576081306 -12.891330479
