316
(C)
Si 8.365653460 1.065562273 8.860440260
Si 5.957955287 0.448890701 10.865953439
Si 5.383785722 1.240166923 0.396411802
Si 2.244557684 1.285425351 0.140529092
Si 1.314340301 0.522681413 10.734735921
Si 3.596577470 1.198836831 8.971561251
Si 8.464675674 16.423195044 9.011298995
Si 6.132182764 17.115964338 10.954921593
Si 5.399957203 16.588704191 0.522689708
Si 2.376151740 16.450358257 0.429249425
Si 1.417788224 17.325162986 10.963521345
Si 3.674281491 16.457438077 9.055730313
Si 1.530084466 18.851306900 2.041004749
Si 3.931046068 19.404032459 4.089973661
Si 4.341295684 18.789300605 6.977871459
Si 7.552749257 18.589311099 6.932660890
Si 8.613461695 19.328102209 4.218803315
Si 6.352159171 18.782024730 2.352017107
Si 1.567251593 3.416366434 2.345567993
Si 3.890190401 2.729171370 4.395799756
Si 4.572753929 3.390534458 7.244212743
Si 7.639384205 3.424156406 7.144071750
Si 8.596547225 2.491537256 4.328917691
Si 11.500146222 11.092435782 4.583312617
Si 13.906408629 10.450256643 2.606981633
Si 14.420571248 11.180907102 13.060489246
Si 17.624429143 11.283439470 13.186128348
Si 18.667751250 10.391866805 2.536523774
Si 16.407594047 11.095678361 4.370533704
Si 11.550852678 6.403835385 4.453305498
Si 13.843990661 7.234935364 2.454474573
Si 14.575283276 6.542718769 12.920570713
Si 17.630100253 6.629360529 12.993696134
Si 18.675390405 7.301992479 2.412116042
Si 16.328023353 6.512233875 4.264882907
Si 18.408344350 8.924167999 11.236849174
Si 16.018577093 9.359705811 9.254134661
Si 15.667868742 8.797892022 6.368363755
Si 11.296349637 9.473880775 9.363805252
Si 13.619090262 8.783876932 11.113904383
Si 18.476053981 13.374487017 11.162717650
Si 16.155101854 12.595370884 9.141672360
Si 12.348857135 13.363530526 6.256941398
Si 11.336205334 12.568028483 9.114849829
Si 13.684717143 13.408418027 10.993513131
Si 11.556993169 18.814353708 4.613223762
Si 13.930596033 19.320198451 2.548099771
Si 14.416443367 18.747700641 12.995190735
Si 17.632716375 18.614645522 13.120055707
Si 18.679225185 19.416262967 2.525401560
Si 16.390776932 18.717863032 4.314643738
Si 11.531168719 3.305388440 4.426210124
Si 13.889223726 2.649438273 2.422593940
Si 14.553868017 3.367997999 12.891717293
Si 18.647056224 2.656884758 2.531782483
Si 16.288268690 3.467280601 4.284104299
Si 18.472508704 1.124828792 11.218531323
Si 16.077867998 0.604593034 9.243026570
Si 15.572469092 1.176218237 6.312898002
Si 12.414673103 1.265369615 6.529596891
Si 11.319553974 0.533011192 9.265870445
Si 13.636652590 1.252981256 11.087763834
Si 18.520568881 16.486959702 11.055236600
Si 16.165182946 17.266353103 9.132205903
Si 15.461182531 16.568908734 6.181478737
Si 12.384545455 16.431321825 6.260361540
Si 11.373129993 17.315444258 9.101663444
Si 13.691246495 16.453810381 10.961040213
Si 8.357459724 8.812455293 8.763581139
Si 6.055249712 9.296854176 10.863974054
Si 5.480080226 8.893425152 0.344869790
Si 2.364614908 8.650803816 0.162606586
Si 1.274929597 9.424073626 10.832307818
Si 3.644416220 8.671694504 9.086834900
Si 8.474612825 13.364060053 8.855176277
Si 2.419560694 13.366820005 0.436428804
Si 1.371105921 12.545291273 11.002982223
Si 3.581682991 13.455823647 9.082751828
Si 1.584148316 11.076115664 2.118376596
Si 3.925577427 10.552602568 4.190682141
Si 4.435368252 11.096194145 7.133139508
Si 7.631820688 11.262509043 6.821539697
Si 8.647920626 10.417584291 4.055750935
Si 6.324795226 11.176829015 2.352326474
Si 1.601787414 6.512323245 2.320813671
Si 3.889545063 7.313989773 4.337275122
Si 4.537628994 6.528806271 7.236707077
Si 7.582436661 6.474432270 7.051884029
Si 8.641785241 7.359209076 4.273847060
Si 6.289097571 6.617637770 2.466260443
Si 17.629615086 3.289300755 13.054043618
Si 6.234690185 12.553141027 11.018694708
O 7.129659542 1.014343403 9.902800054
O 6.120770653 1.189213342 12.304900374
O 3.810095182 0.918188790 0.170189097
O 1.751918875 1.482899098 11.978997639
O 2.040065612 1.013114835 9.368272967
O 4.469694600 0.736514245 10.266687043
O 7.427665360 16.481533359 10.259157352
O 6.127542999 16.573257737 12.483419459
O 3.885961067 17.129558569 0.359973377
O 1.760762947 16.488891562 12.311388354
O 2.227958233 16.675873305 9.721727196
O 4.798279981 16.486452505 10.252897511
O 6.119219874 18.720212152 10.896661225
O 1.765113092 18.896273401 11.151163561
O 8.439670753 2.581181160 8.289620664
O 8.241142225 19.882994523 7.652265680
O 7.865104904 17.236713522 7.754438210
O 3.900563061 2.743439859 8.582482385
O 3.894146239 0.277772411 7.671701473
O 3.895729659 17.499453388 7.855359600
O 19.762613977 0.638463713 10.355879366
O 19.903996134 17.134461129 10.525978551
O 2.867131743 18.975559337 2.944868398
O 3.609470375 18.699379811 5.528479162
O 5.949125543 18.798944107 6.861952385
O 8.163599094 18.341468507 5.443102194
O 7.881319692 18.889279653 2.843211130
O 5.381021219 18.793467548 3.654715955
O 2.595075714 3.229499163 3.565087132
O 3.616922567 3.039648700 5.981145533
O 6.109174012 2.847320853 7.042599868
O 8.421636657 3.322658077 5.729213587
O 7.800655098 3.122755101 3.106492326
O 5.195184967 3.502571209 3.922308594
O 3.992082020 1.107321228 4.194013282
O 8.161138099 0.931057678 4.639146035
O 1.472569658 17.330740939 1.439896270
O 1.478520814 0.002286042 0.797893055
O 1.954452533 2.648201866 0.966117197
O 6.299457414 17.320078563 1.621531296
O 5.949759819 19.874998044 1.252086334
O 5.657584924 2.593334138 1.161837630
O 10.186688452 19.160430567 3.833370277
O 10.202547347 2.482983538 4.005744176
O 12.787309055 11.059578709 3.579049461
O 13.727179069 11.146952069 1.143499756
O 16.033241472 11.064786431 13.038645472
O 18.080567635 11.333145271 1.348506839
O 17.904659680 10.680737848 3.921932602
O 15.404362326 10.762543218 3.124737671
O 12.610617678 6.533728538 3.214516786
O 13.723861285 6.810886432 0.885911468
O 16.103420555 7.175440978 13.034742294
O 18.263092129 6.446636816 1.072100744
O 17.801398941 6.808759485 3.664934613
O 15.282038162 6.731310477 3.030271971
O 13.716571803 8.843651962 2.502698535
O 18.436431556 8.855572662 2.042097078
O 11.393227890 12.612533818 5.175015386
O 11.580516688 10.039112928 5.795844136
O 12.049614641 7.091352651 5.797093995
O 16.302086383 12.644781062 4.751854052
O 16.128261740 10.217906317 5.714260929
O 16.126990273 7.481072039 5.532120393
O 0.198509721 10.686453396 2.862023647
O 0.185410932 7.092141617 2.852657847
O 17.057372201 8.762118219 10.355828939
O 16.395968338 8.661130490 7.843935675
O 14.092163179 8.845887319 6.520826914
O 12.048204729 8.471909174 8.204600084
O 12.054966926 9.025413199 10.716970900
O 14.474457907 8.934698016 9.717731887
O 17.424685516 13.089053487 9.998328600
O 16.312318442 13.171796922 7.670299567
O 13.812216699 12.712847619 6.334770652
O 11.675760447 13.366000268 7.754616436
O 12.237907166 13.079777654 10.354501258
O 14.827039433 13.169547068 9.887310056
O 16.122824725 10.962768787 9.191929004
O 11.590835698 10.964457378 8.839054461
O 18.547927885 7.456304864 11.961615997
O 18.351521320 10.047880479 12.404787199
O 18.069355369 12.712377193 12.583167428
O 13.808828918 7.277054478 11.683115375
O 13.993418295 9.854176340 12.231618801
O 13.905984144 12.519129363 12.324705827
O 9.750116849 9.121663774 9.549339178
O 9.814964639 12.795810707 9.617965261
O 12.794180811 18.794372083 3.569662897
O 13.712144201 18.696423235 1.073428324
O 16.026977070 18.705226441 13.040450315
O 18.176554042 18.519563791 1.258912103
O 17.906112186 18.884173517 3.839180833
O 15.391292868 18.794382396 3.040045001
O 12.606638743 3.224838002 3.213698931
O 13.716897169 3.138633619 0.890122982
O 16.011076427 2.692544706 12.943221992
O 18.256194040 3.510813083 1.242847423
O 17.800843476 3.128123674 3.842868979
O 15.288451395 3.227893449 3.023112586
O 13.907889272 1.030021423 2.503939023
O 18.348716727 1.075883987 2.227196569
O 11.481410129 17.324482523 5.263641946
O 11.680058598 0.007381311 5.807328421
O 12.150780814 2.675067096 5.792982863
O 16.308536446 17.232959440 4.987046241
O 16.120739292 19.816957483 5.453222165
O 15.840547972 2.568204684 5.548296700
O 0.209803059 19.153357227 2.935903538
O 0.178096931 2.849554100 2.947328429
O 17.236858632 1.195350384 10.175149375
O 16.314769491 1.202707484 7.754823382
O 13.992888982 0.917635525 6.520793108
O 11.852203350 1.469623804 8.040665250
O 12.126007741 0.918708032 10.616725807
O 14.637445970 1.102482791 9.812399427
O 17.501196976 16.672278419 9.812605491
O 16.220278269 16.759348293 7.580996105
O 13.918719870 17.043687985 6.249021651
O 11.842557487 16.486344833 7.783647118
O 12.231753341 16.766187600 10.351493689
O 14.825063788 16.669742932 9.812512268
O 16.127698727 18.880245702 9.192635732
O 11.603057334 18.893467280 8.825665763
O 18.645135015 2.579251382 11.865316527
O 18.264067923 19.908945530 12.398173243
O 18.069184956 17.230923886 12.409147839
O 13.632903729 2.764936390 11.680747391
O 14.000550024 0.258115378 12.311980508
O 13.905477367 17.423553156 12.226623091
O 9.749832320 0.740802818 9.643344291
O 9.825315145 17.131116851 9.540320864
O 7.223892130 8.662812932 9.902425245
O 6.392330049 8.757267543 12.381153798
O 3.937903118 8.829528437 -0.161047375
O 1.570326064 8.483121246 12.130828131
O 2.121595615 8.940018342 9.547202486
O 4.638728838 8.660602884 10.357998465
O 7.231371092 13.177956719 9.798730426
O 6.395049419 13.354251315 12.490133203
O 3.881542335 12.716418222 0.440766829
O 1.766621838 13.437645389 12.303367244
O 2.127667383 13.083041388 9.650941129
O 4.625143318 13.448089824 10.434402729
O 5.933710334 10.879240008 10.794794207
O 1.671255632 10.959795651 11.241997250
O 8.532685378 7.371102243 8.028307978
O 8.165300892 9.962935479 7.655882251
O 8.256439186 12.625971899 7.413609510
O 3.709608365 7.180648751 8.465304470
O 3.995845492 9.765367511 7.938616728
O 3.994281835 12.429525953 7.944603866
O 19.738973668 9.216272390 10.352822895
O 19.839709641 12.709196942 10.616497654
O 2.777822594 11.147284077 3.213075593
O 3.694410013 11.142388646 5.694080746
O 6.027046592 11.151391129 6.955406327
O 8.066918167 11.336765651 5.262833539
O 7.799143506 10.584267798 2.683168261
O 5.377213197 11.039705942 3.672469997
O 2.607023996 6.716824568 3.562280315
O 3.711707127 6.824298649 5.875811883
O 6.070456762 7.110847711 7.128472060
O 8.154042641 6.447938578 5.533538239
O 7.793479296 7.004408723 2.941648113
O 5.285746116 6.719782265 3.747756975
O 3.890885514 8.929679055 4.194122266
O 8.438146934 8.919125374 4.649186702
O 1.396107528 12.535697409 1.417654857
O 1.851997097 9.949760173 0.979240021
O 2.056740676 7.287205457 0.976756451
O 6.392993811 12.720069653 1.957531381
O 5.742695864 10.320659739 1.073306209
O 5.826194335 7.664928717 1.328128650
O 10.185054537 10.776533939 3.660174058
O 10.188786986 7.101940247 3.911321311
O 8.722245420 14.929641645 8.476446695
O 3.707217578 14.939707140 8.462966479
O 5.383229740 15.022683218 1.169101647
O 2.486807425 14.927573170 0.972702403
O 1.478731713 4.968602135 1.877321498
O 6.397179452 5.152508949 1.787352782
O 4.632978249 4.965973885 7.580913133
O 7.604239872 4.971518929 7.667104985
O 11.208554933 4.851569252 4.732691705
O 16.214556051 4.993768989 4.818632587
O 14.649751961 4.973840147 12.579307844
O 17.619380330 5.061202429 12.312640848
O 18.645717808 14.940648027 11.495831341
O 13.725401660 14.937669052 11.515411730
O 15.556968039 14.956623753 5.634858439
O 12.420706073 14.917194248 5.717705989
O 7.222479288 5.248885660 -15.877441212
O 8.715356460 4.882554996 14.002292041
Al 6.212505091 3.528935535 2.520634645
Al 12.410522378 8.660982167 6.361639195
Al 15.467708769 13.151744122 6.184422144
Al 5.537354137 13.238906683 0.545980394
H -14.236481862 -4.884436133 2.064045360
H 15.995872695 14.926544150 4.757137459
H 12.949819970 8.235479085 8.537209686
H 6.308056142 4.948540838 -2.625407859
H 8.396656850 7.848791370 -14.221659174
H 9.262480209 6.574375983 -15.240657186
H 11.293905319 6.843208173 -13.908142819
H 7.765632443 5.033692097 -12.350062795
H 10.789325293 7.948097778 -11.626781082
H 9.682167053 9.071950651 -12.451328596
H 11.434950453 9.105297943 -12.788549767
H 7.332939267 5.943812871 -16.546969641
H 7.996220103 3.530669968 12.542639127
H 8.576690953 2.842994071 14.106464554
H 10.226838299 2.204827164 12.546544168
H 10.944449249 3.523038122 13.446911966
H 10.562436580 5.071800589 11.458158847
H 9.659220265 3.794482141 10.629747573
H 11.403897000 3.616491791 10.940860935
H 8.960113593 5.680202115 13.414785247
C 9.292413824 7.260913791 -14.396942368
C 10.415235515 7.448822591 -13.680144846
C 10.575134437 8.448113260 -12.581250882
C 8.795055325 3.538830607 13.290330708
C 10.172073294 3.297004682 12.697536876
C 10.459097100 3.985716711 11.356801883
