316
(A)
Si 8.363620184 1.075760405 8.857830077
Si 5.955889363 0.450046284 10.861788907
Si 5.398011375 1.270787988 0.394831580
Si 2.248894888 1.287179056 0.141302081
Si 1.316057213 0.523326722 10.734286752
Si 3.596793828 1.204996020 8.969475061
Si 8.462304689 16.426956480 9.006654046
Si 6.132187524 17.117208258 10.955370778
Si 5.401152287 16.591081132 0.524639790
Si 2.377091230 16.451664418 0.429531707
Si 1.418366523 17.325379604 10.963849049
Si 3.674105693 16.458109319 9.055478438
Si 1.532004053 18.852345688 2.042309933
Si 3.940435147 19.407575888 4.090541247
Si 4.338495894 18.791142714 6.978360654
Si 7.549628501 18.604072948 6.935406510
Si 8.610804231 19.393765724 4.211135772
Si 6.353410416 18.792621682 2.349800148
Si 1.569806937 3.416409089 2.347916577
Si 3.902593610 2.728814459 4.395301708
Si 4.572469932 3.399342241 7.242025434
Si 7.627737952 3.443586748 7.140369394
Si 8.588224263 2.577119149 4.315134295
Si 11.494816738 11.091931577 4.581924229
Si 13.904379806 10.450910042 2.606654262
Si 14.420548393 11.181285665 13.061332452
Si 17.624614275 11.283270121 13.186461690
Si 18.667480281 10.391306737 2.537394877
Si 16.406020802 11.100514001 4.371349620
Si 11.541286663 6.421993168 4.436036431
Si 13.845331651 7.235683418 2.453139608
Si 14.575459167 6.542294250 12.920841073
Si 17.631019719 6.629386771 12.994986610
Si 18.683450100 7.300304177 2.414007343
Si 16.329639546 6.512676529 4.263855335
Si 18.408661250 8.923947413 11.237115103
Si 16.019571729 9.359997357 9.253578714
Si 15.668099916 8.798497414 6.367007275
Si 11.297111378 9.474767387 9.358208746
Si 13.620431691 8.783942795 11.114403184
Si 18.476437643 13.374413033 11.163060892
Si 16.155364720 12.595917594 9.142062836
Si 12.347463127 13.363780888 6.255623440
Si 11.335982565 12.570582134 9.114575607
Si 13.685148339 13.409060788 10.993887060
Si 11.552283838 18.815360048 4.611280400
Si 13.930384290 19.319616211 2.548699933
Si 14.416436447 18.748896278 12.994645168
Si 17.632910351 18.614774736 13.120096084
Si 18.679350904 19.416957146 2.525457097
Si 16.390987420 18.715718436 4.315466113
Si 11.533933960 3.326303912 4.421439220
Si 13.891934018 2.649640964 2.422605380
Si 14.556760443 3.367575546 12.891076922
Si 18.648032302 2.657783652 2.531867743
Si 16.289129291 3.467792898 4.284683176
Si 18.473373104 1.124517996 11.218107101
Si 16.077978742 0.604443166 9.243144270
Si 15.572481123 1.175895032 6.312599725
Si 12.413277124 1.266844526 6.526728851
Si 11.319000513 0.532165995 9.263840278
Si 13.634860643 1.254606477 11.086112668
Si 18.521229198 16.486963938 11.055382334
Si 16.165566999 17.265722463 9.131588811
Si 15.453438608 16.569781154 6.182064228
Si 12.381335761 16.432118589 6.259937392
Si 11.372125029 17.315194872 9.101670329
Si 13.691214316 16.454515310 10.960937040
Si 8.352141122 8.804530508 8.757336489
Si 6.054488889 9.294367952 10.863184675
Si 5.487098154 9.002887643 0.388409803
Si 2.369112400 8.654288701 0.167809505
Si 1.275928418 9.424485159 10.833011956
Si 3.643774028 8.670047178 9.087134034
Si 8.473870032 13.365138230 8.853724984
Si 2.416661497 13.369032849 0.436920261
Si 1.371083755 12.545935583 11.003122442
Si 3.580747550 13.455677868 9.081253617
Si 1.583498418 11.077684999 2.119228757
Si 3.928092351 10.561131493 4.187235044
Si 4.434857224 11.095115466 7.132404935
Si 7.631159238 11.261186065 6.821025114
Si 8.638432886 10.397661998 4.056312583
Si 6.334471901 11.247648919 2.350158691
Si 1.616203032 6.511881345 2.312743122
Si 3.905065984 7.338744425 4.359483019
Si 4.516347377 6.547357306 7.224303069
Si 7.546852281 6.491856971 7.052004717
Si 8.639969889 7.325325458 4.252487190
Si 6.240130070 6.670877769 2.518716863
Si 17.631201771 3.289198977 13.053748947
Si 6.232447667 12.555041936 11.017975598
O 7.130431839 1.015804029 9.902491966
O 6.124409102 1.188658863 12.300696201
O 3.821443513 0.930870425 0.175605285
O 1.753503088 1.481804666 11.980566138
O 2.040447173 1.013447982 9.368001934
O 4.467616030 0.736725727 10.265833707
O 7.427371355 16.482459015 10.257465238
O 6.127465693 16.574147967 12.483325083
O 3.886290295 17.130474652 0.359796723
O 1.760643679 16.488980509 12.311658656
O 2.227938790 16.675796652 9.721870515
O 4.798752992 16.486329958 10.252617415
O 6.119489560 18.721513810 10.896677314
O 1.765265333 18.896423627 11.151175192
O 8.438621255 2.590151077 8.281487021
O 8.242210687 19.889227563 7.659173919
O 7.864445735 17.242117787 7.747556212
O 3.898925389 2.747942927 8.578409545
O 3.893448768 0.278834652 7.672128603
O 3.895196630 17.499603668 7.855159673
O 19.763630621 0.638263563 10.356216897
O 19.904413615 17.134302852 10.526060306
O 2.869040036 18.979644056 2.947517006
O 3.609053640 18.700780549 5.527231418
O 5.945821756 18.798622892 6.864124748
O 8.162062107 18.422527581 5.443486677
O 7.883317693 18.905717426 2.843102510
O 5.384418725 18.789553761 3.652524545
O 2.597607125 3.223550008 3.566967928
O 3.616594078 3.038945143 5.979609499
O 6.106253610 2.844685748 7.040461719
O 8.426792700 3.402016002 5.726128708
O 7.785283103 3.223090417 3.109053632
O 5.198443424 3.503525971 3.917745946
O 4.074068033 1.108087121 4.193768034
O 8.167122510 1.008210396 4.629867983
O 1.472945459 17.331936125 1.440689513
O 1.481167153 0.002999058 0.797693286
O 1.954912687 2.648228788 0.967118304
O 6.301105021 17.327648169 1.620440563
O 5.943090614 19.895424653 1.255257338
O 5.753533868 2.670918146 1.072613427
O 10.182866197 19.168207453 3.832484928
O 10.190795256 2.569005306 3.927336914
O 12.784710630 11.059374312 3.579265388
O 13.727486178 11.147890290 1.143568588
O 16.033213285 11.064632801 13.038394366
O 18.080428565 11.332682201 1.348759366
O 17.902587413 10.682009385 3.922070085
O 15.402229318 10.765332845 3.125641632
O 12.615627338 6.533179836 3.212145168
O 13.724192584 6.810772322 0.885051689
O 16.103738812 7.175293859 13.034440116
O 18.264121406 6.446962509 1.073253350
O 17.803467246 6.808511993 3.664377299
O 15.283329352 6.731684622 3.029900779
O 13.715863997 8.844213808 2.502304888
O 18.438151338 8.853873512 2.043737614
O 11.392229565 12.612177392 5.174483767
O 11.580056448 10.039778300 5.795610338
O 12.043738731 7.093586042 5.790702971
O 16.298979632 12.650140931 4.756822402
O 16.128036399 10.218897814 5.713970049
O 16.127198063 7.481352773 5.531703329
O 0.197848874 10.686636977 2.862327199
O 0.195980124 7.090176566 2.854067654
O 17.057137672 8.762167774 10.355828233
O 16.395475752 8.661248729 7.843488578
O 14.091757844 8.845605119 6.521097163
O 12.049702710 8.471988100 8.204149618
O 12.051853676 9.024086052 10.717003977
O 14.473360650 8.935091385 9.717069980
O 17.424746113 13.089136252 9.998427060
O 16.312406581 13.172473481 7.670336012
O 13.809646074 12.711187692 6.335523244
O 11.675467902 13.366427640 7.754333603
O 12.237993057 13.079726678 10.354693707
O 14.826744113 13.169532845 9.887075805
O 16.122620902 10.963010958 9.191879625
O 11.590844208 10.965387916 8.839179358
O 18.547889283 7.456252263 11.961775523
O 18.351447148 10.047844783 12.404752501
O 18.069260055 12.712263044 12.583296601
O 13.808138110 7.276989724 11.682725354
O 13.993554610 9.854453236 12.230897841
O 13.905923701 12.519182292 12.324513125
O 9.748734411 9.120419258 9.549414096
O 9.814403298 12.795800220 9.617699833
O 12.793202526 18.794322866 3.569929905
O 13.712229626 18.696694667 1.073307985
O 16.026875383 18.705347957 13.040404628
O 18.176550254 18.519788307 1.259042070
O 17.905879959 18.883940888 3.839192260
O 15.391280663 18.794089024 3.040532896
O 12.609938010 3.225550061 3.212748615
O 13.717770060 3.137952346 0.889487033
O 16.012738365 2.690980844 12.942225734
O 18.255938846 3.511053517 1.242861232
O 17.801046035 3.128152696 3.842969788
O 15.289672051 3.228022798 3.023338642
O 13.907712501 1.029941020 2.503667597
O 18.348771604 1.076676762 2.227376627
O 11.479104536 17.325581051 5.262721004
O 11.679608948 0.007813545 5.806753626
O 12.144293619 2.675996506 5.786759748
O 16.307685055 17.230196761 4.988776900
O 16.120538056 19.816328244 5.453110202
O 15.840454405 2.568125369 5.548275430
O 0.210182358 19.153944508 2.935741937
O 0.178566746 2.850038612 2.947334647
O 17.236916191 1.195268020 10.175151737
O 16.314538949 1.202571024 7.754721255
O 13.991988763 0.918913727 6.520143005
O 11.852386897 1.470327418 8.039280907
O 12.124830280 0.918205077 10.615590985
O 14.637418328 1.102707256 9.812404118
O 17.501529081 16.672201447 9.812424471
O 16.219436167 16.757895665 7.579427849
O 13.913830354 17.047196593 6.249875980
O 11.840694659 16.485392564 7.784079414
O 12.231566965 16.766187384 10.351412693
O 14.825187914 16.669690938 9.812409277
O 16.127621174 18.879872370 9.192452906
O 11.603521316 18.893051426 8.825199047
O 18.645608495 2.579065615 11.864921933
O 18.264050698 19.909014000 12.398116156
O 18.069123912 17.230960448 12.409095733
O 13.631237971 2.766231838 11.681231760
O 13.999945165 0.259778659 12.311711946
O 13.905441288 17.424053870 12.226659026
O 9.747723303 0.738456561 9.639261502
O 9.824349642 17.131005104 9.539635260
O 7.226156563 8.665033959 9.908214985
O 6.394699496 8.749490864 12.403751529
O 3.955948200 8.841142354 -0.099877929
O 1.576004450 8.484915032 12.132712202
O 2.121424262 8.941177858 9.548129646
O 4.638597566 8.661696555 10.363093776
O 7.231355374 13.177154820 9.798469823
O 6.396215836 13.354386385 12.488651241
O 3.877745338 12.718207093 0.439677605
O 1.765928328 13.438341627 12.303030426
O 2.127584016 13.082961519 9.650923905
O 4.625082211 13.448997705 10.433768594
O 5.934344135 10.876865840 10.798763024
O 1.671277640 10.960406773 11.242242782
O 8.529571665 7.369694147 8.023431676
O 8.165411637 9.963405095 7.658076837
O 8.256379301 12.625465934 7.412905575
O 3.706178002 7.181704898 8.472021747
O 3.995929303 9.766038004 7.940245599
O 3.994474598 12.429267564 7.944454426
O 19.739439436 9.216126990 10.353524843
O 19.839585727 12.709059095 10.616367546
O 2.776861768 11.149904591 3.211877429
O 3.696542740 11.145193610 5.693234013
O 6.027132239 11.151688181 6.955792144
O 8.067261667 11.330982215 5.261889638
O 7.787073782 10.593287877 2.682547615
O 5.378743620 11.047866042 3.659480976
O 2.697921164 6.716583707 3.483806851
O 3.632488305 6.899461639 5.898199119
O 6.041641092 7.172815652 7.122821691
O 8.155271771 6.447577177 5.540513305
O 7.796585840 6.911371711 2.938480653
O 5.375068292 6.811999936 3.914408673
O 3.884511822 8.945687541 4.192368224
O 8.438397858 8.889637648 4.638250199
O 1.394961265 12.536416539 1.417584058
O 1.850514778 9.951792184 0.979747275
O 2.052978054 7.288166141 0.967003775
O 6.398016604 12.799858696 1.971511912
O 5.747866523 10.496315380 0.986581133
O 5.842555259 7.910756989 1.515763997
O 10.176800499 10.774592099 3.663027208
O 10.189252298 7.099274110 3.836769377
O 8.721596550 14.930886265 8.476151834
O 3.707343654 14.939912911 8.463097860
O 5.381037232 15.027079222 1.166238342
O 2.485296622 14.928868615 0.972784007
O 1.477688780 4.967283233 1.878419497
O 6.097596944 5.259679243 1.796890579
O 4.628772198 4.978500858 7.567679825
O 7.521834444 4.983415772 7.666870956
O 11.213405913 4.869610342 4.733399946
O 16.214634330 4.994368013 4.818682861
O 14.650069912 4.973557112 12.579187635
O 17.619523019 5.061256803 12.312742036
O 18.645354218 14.940517008 11.496238849
O 13.725472997 14.938107286 11.515482060
O 15.493541849 14.956179270 5.628949306
O 12.419348056 14.917637930 5.717509566
O 8.164585005 6.449312006 -14.100972475
O 8.157963394 4.237003143 13.646816749
Al 6.196732894 3.644820915 2.498736010
Al 12.410019177 8.660780521 6.356543701
Al 15.462058258 13.152284422 6.188625325
Al 5.530697713 13.243475553 0.538481359
H -14.214422542 -4.901996946 2.049973648
H 15.927796638 14.920517713 4.748581224
H 12.960966868 8.260000635 8.530555098
H 8.164653019 5.344601716 -0.166154189
H 9.263435184 7.861568548 -15.144758931
H 10.024910704 6.276993737 -14.939536080
H 11.272264845 7.673934536 -13.473604815
H 10.179686181 6.820370763 -12.400189245
H 8.638598938 8.845003863 -12.350551439
H 9.738450077 9.698047085 -13.446455935
H 10.263209148 9.263785784 -11.810451516
H 7.466221396 7.128119714 -13.965865491
H 8.947095474 2.326057628 13.613131159
H 9.632510057 3.414513856 14.847701828
H 11.267009481 2.988997552 13.056764767
H 10.856522873 4.682130255 13.092545591
H 9.274244308 4.328975145 11.090839904
H 9.636086456 2.605048854 11.155153019
H 10.908202233 3.745901274 10.704777457
H 7.312734242 3.751430848 13.520018366
C 9.473970755 7.067982850 -14.421896962
C 10.210915962 7.580031383 -13.194476952
C 9.682348224 8.917946235 -12.675244559
C 9.333572732 3.335164179 13.798366767
C 10.448639366 3.693438284 12.838763454
C 10.044726336 3.598027063 11.366794405
