316
(B)
Si 8.372457002 1.066988726 8.862546851
Si 5.953441271 0.426847840 10.846646257
Si 5.398937844 1.263760562 0.384469119
Si 2.252328803 1.283445413 0.140738536
Si 1.316748350 0.523203333 10.734322290
Si 3.595169206 1.208524966 8.963930948
Si 8.465423908 16.429304458 9.006392942
Si 6.123688270 17.102050004 10.948978277
Si 5.413540085 16.622690010 0.533662260
Si 2.379321754 16.452525528 0.429730124
Si 1.420529830 17.324298350 10.962517957
Si 3.668291626 16.447224303 9.037146684
Si 1.533428023 18.852983871 2.042614386
Si 3.940453554 19.418987870 4.090138340
Si 4.338040903 18.793005755 6.974413602
Si 7.549606418 18.603765028 6.933689834
Si 8.630968240 19.398765544 4.222074125
Si 6.364564779 18.841246660 2.374453913
Si 1.573523142 3.412351715 2.345808299
Si 3.958825539 2.757843568 4.315330957
Si 4.580934691 3.400053739 7.223759222
Si 7.631076885 3.438478326 7.156301765
Si 8.595691327 2.580027676 4.337713667
Si 11.496535184 11.092338429 4.582884594
Si 13.907809935 10.452075857 2.607909709
Si 14.422168861 11.182366058 13.060797260
Si 17.625854994 11.283654583 13.186349867
Si 18.667713708 10.390869802 2.537606893
Si 16.407158265 11.103808820 4.374389742
Si 11.544181638 6.414568574 4.440300633
Si 13.849832352 7.235068246 2.454740044
Si 14.576569903 6.540552897 12.920413623
Si 17.631599536 6.627909971 12.995042716
Si 18.686854783 7.299427055 2.414159047
Si 16.332550082 6.510843371 4.265221690
Si 18.409006925 8.923450638 11.237405369
Si 16.020522639 9.360314388 9.253386972
Si 15.668791651 8.798355149 6.366917742
Si 11.301136646 9.476224298 9.360683718
Si 13.623635948 8.783469914 11.114730851
Si 18.477329399 13.375536367 11.162813142
Si 16.155817093 12.596334646 9.141959108
Si 12.347933537 13.365223750 6.255782561
Si 11.336187907 12.571214880 9.114497759
Si 13.685495051 13.410401659 10.993523837
Si 11.557640254 18.815885738 4.613101816
Si 13.930633145 19.320200986 2.548422010
Si 14.416601784 18.749499760 12.995124671
Si 17.633032732 18.615277418 13.120469035
Si 18.680750024 19.416913804 2.525246422
Si 16.391818061 18.718011419 4.314183396
Si 11.534560277 3.313867174 4.427795891
Si 13.889716193 2.649516129 2.422558891
Si 14.553997984 3.366002404 12.891787339
Si 18.650301607 2.657266475 2.531877145
Si 16.289377102 3.465939628 4.283702974
Si 18.473751927 1.124802399 11.218164211
Si 16.078121511 0.605215711 9.243127822
Si 15.572453665 1.176145785 6.312890391
Si 12.414982524 1.266906769 6.527782629
Si 11.335842119 0.525677008 9.263182018
Si 13.637391894 1.254953612 11.087045437
Si 18.521844959 16.488507878 11.055163651
Si 16.165521260 17.267082177 9.132695324
Si 15.453812682 16.578490160 6.183649195
Si 12.381183850 16.432764947 6.260688693
Si 11.381788539 17.319829566 9.101090817
Si 13.691550833 16.455605447 10.961491381
Si 8.347069977 8.814950846 8.800243544
Si 6.040756243 9.309498494 10.887366493
Si 5.492070755 8.998765386 0.384486347
Si 2.370748818 8.652243376 0.169801464
Si 1.276186105 9.424246733 10.834193565
Si 3.642979436 8.670168087 9.085159110
Si 8.472921856 13.366468051 8.855657446
Si 2.423652437 13.369130463 0.437360230
Si 1.373282467 12.547378753 11.001655199
Si 3.578119715 13.466436295 9.064986475
Si 1.583639686 11.077613258 2.117988887
Si 3.917327430 10.534249030 4.187170383
Si 4.433630511 11.093556041 7.128547512
Si 7.631483503 11.256205313 6.828652093
Si 8.639337095 10.398489192 4.063545801
Si 6.326897656 11.231094708 2.360157957
Si 1.617663434 6.499747974 2.313938042
Si 3.922744670 7.303754264 4.330471352
Si 4.552525993 6.549624063 7.228532510
Si 7.588484281 6.492212978 7.093909089
Si 8.645375059 7.315821248 4.279699709
Si 6.260690857 6.652077021 2.472382741
Si 17.630147229 3.287167793 13.055193162
Si 6.224617820 12.566491012 11.023398895
O 7.131672992 1.014762404 9.902205995
O 6.125913795 1.104462328 12.302016882
O 3.822372850 0.919125875 0.176502467
O 1.754807839 1.480956833 11.979718042
O 2.040612987 1.014276883 9.367481949
O 4.466589398 0.738613517 10.261157229
O 7.428399198 16.479681200 10.256654534
O 6.125679183 16.573503243 12.483711800
O 3.888351352 17.131257880 0.360419068
O 1.761304255 16.488864251 12.311646384
O 2.229190762 16.672549195 9.719319141
O 4.784165111 16.473935284 10.246808811
O 6.117281846 18.704809864 10.885819000
O 1.765613905 18.895533904 11.150407656
O 8.439353300 2.585566676 8.293514590
O 8.242556809 19.888024792 7.659343072
O 7.864541993 17.242175529 7.747933776
O 3.896756771 2.752587649 8.564488339
O 3.893565395 0.279066916 7.671237008
O 3.895333072 17.502151736 7.853112133
O 19.764235230 0.638170242 10.356373994
O 19.905992882 17.134058082 10.525865148
O 2.869887915 18.980303406 2.948036153
O 3.608285319 18.702947866 5.525066212
O 5.945946128 18.798511747 6.864220797
O 8.162620584 18.421148693 5.443114229
O 7.889324767 18.975008055 2.849916756
O 5.381299619 18.789562416 3.658407636
O 2.594399212 3.222306335 3.566345292
O 3.705547091 3.049360344 5.911569573
O 6.113815877 2.844100157 7.045147753
O 8.430637071 3.399877557 5.753752194
O 7.796627760 3.218728342 3.131039490
O 5.191709714 3.573638821 3.747138096
O 4.079484741 1.117114750 4.189142406
O 8.234887531 1.008018525 4.646257190
O 1.473847758 17.331499431 1.440511236
O 1.480434448 0.001945609 0.797393489
O 1.956681615 2.642810297 0.964807200
O 6.301060700 17.403245871 1.607697180
O 6.018285706 19.993923586 1.330832387
O 5.743357999 2.680863645 0.989287658
O 10.192179400 19.162082645 3.831992171
O 10.205220282 2.498011408 4.006856946
O 12.785141203 11.059193709 3.578722845
O 13.726923905 11.147080590 1.143658407
O 16.033747345 11.064747405 13.038710434
O 18.080459533 11.332518307 1.348934690
O 17.902305417 10.682716563 3.922239352
O 15.404086855 10.765633693 3.126609006
O 12.614306805 6.533799657 3.210836189
O 13.722402043 6.811664753 0.885613458
O 16.103765501 7.175192071 13.035038152
O 18.264350704 6.447175332 1.073557761
O 17.804429980 6.808792906 3.664091692
O 15.284713683 6.731260215 3.030614005
O 13.715202329 8.844363661 2.502212700
O 18.438631057 8.853431942 2.044315566
O 11.392132093 12.611963071 5.174416169
O 11.579904994 10.039272016 5.795503974
O 12.043314737 7.093535726 5.790936768
O 16.297243482 12.653257641 4.760715299
O 16.128082012 10.218740224 5.714057922
O 16.127096359 7.481119058 5.531512874
O 0.198182554 10.686988320 2.862326203
O 0.199504304 7.090019591 2.854491593
O 17.057321761 8.762226645 10.355937444
O 16.395651782 8.661182781 7.843434102
O 14.092042006 8.845447233 6.520745375
O 12.049413169 8.471965299 8.204523146
O 12.054210229 9.023306507 10.719580830
O 14.474175562 8.935110450 9.717001912
O 17.425057549 13.089002232 9.998600099
O 16.312368738 13.172784433 7.670357710
O 13.809913650 12.711833906 6.335296677
O 11.675295879 13.366354518 7.754026665
O 12.238010079 13.079619718 10.354871990
O 14.826796654 13.169293917 9.887005310
O 16.122688498 10.963155024 9.191845910
O 11.591679395 10.966070096 8.838918646
O 18.547863132 7.456148634 11.961952155
O 18.351442194 10.047789600 12.404709255
O 18.069423557 12.712496850 12.582989182
O 13.808161923 7.276760050 11.683330677
O 13.993534863 9.854901097 12.231656427
O 13.905636918 12.519200461 12.324461929
O 9.756631159 9.126616011 9.560519965
O 9.814105931 12.795134542 9.617350011
O 12.795229516 18.793932980 3.569863370
O 13.712313875 18.696548815 1.073419223
O 16.027144446 18.705097888 13.040344379
O 18.176630630 18.519630628 1.259106105
O 17.906907397 18.883924863 3.839071135
O 15.391574805 18.794239380 3.040199466
O 12.607461376 3.225655813 3.213570028
O 13.719078932 3.138728203 0.890775925
O 16.011552764 2.692031687 12.942748429
O 18.255839803 3.510789508 1.243187935
O 17.801314054 3.128030319 3.842667211
O 15.288639276 3.228117293 3.023513857
O 13.907816580 1.030122289 2.503824159
O 18.348747920 1.076064264 2.227309162
O 11.480233090 17.325025545 5.263216410
O 11.680531789 0.007820424 5.808093659
O 12.151810771 2.677313033 5.792596084
O 16.308119979 17.232317572 4.988133524
O 16.120813440 19.816579741 5.453174559
O 15.840736793 2.568231531 5.548323522
O 0.211007213 19.153022621 2.935607023
O 0.179225486 2.849923845 2.946683239
O 17.237426498 1.195265163 10.175165936
O 16.314947025 1.202657330 7.754680491
O 13.993140611 0.917832294 6.520396842
O 11.853064325 1.470400808 8.038929917
O 12.129212936 0.918295056 10.617352263
O 14.638290496 1.102730907 9.812306872
O 17.501685087 16.672235363 9.812469067
O 16.219909156 16.758985876 7.580596347
O 13.913112743 17.048068521 6.250522858
O 11.837793496 16.482533597 7.783893191
O 12.231544417 16.763564903 10.353216267
O 14.825282504 16.669524432 9.812496592
O 16.127845946 18.880335611 9.192548551
O 11.681065606 18.890623508 8.830033657
O 18.645406014 2.579376535 11.865095807
O 18.264134486 19.909126761 12.398023179
O 18.069228369 17.231079153 12.409058348
O 13.633813459 2.766231295 11.680235882
O 14.000626954 0.259687984 12.312481050
O 13.905746399 17.424206602 12.227059038
O 9.761429680 0.729772929 9.635964408
O 9.829496299 17.135749593 9.536803331
O 7.236896531 8.667825735 9.972343953
O 6.389640874 8.759082108 12.405434676
O 3.956041049 8.841627988 -0.097609455
O 1.576374362 8.484670318 12.133519439
O 2.121684805 8.940284400 9.547953503
O 4.639439399 8.661099450 10.360973560
O 7.230895119 13.177041489 9.801385370
O 6.392810559 13.354521366 12.500961485
O 3.888441957 12.723695091 0.443523682
O 1.767884659 13.437237387 12.303679198
O 2.129732649 13.086006222 9.648058451
O 4.619049181 13.457349721 10.427503813
O 5.931525821 10.887533598 10.797859681
O 1.671478948 10.960794856 11.241533283
O 8.529569423 7.363396144 8.103798727
O 8.161223770 9.953606189 7.668445673
O 8.256166750 12.624027536 7.414221588
O 3.713597842 7.180436275 8.467299216
O 3.996047293 9.765792624 7.939548119
O 3.995273417 12.426040975 7.942974260
O 19.739792477 9.216044131 10.353661964
O 19.840593787 12.709257882 10.616405926
O 2.777895270 11.148388467 3.212650016
O 3.695453279 11.140437079 5.687725821
O 6.026889565 11.151036621 6.955520360
O 8.066838096 11.330315550 5.265505520
O 7.792622144 10.590169578 2.682618508
O 5.383287340 10.962324512 3.660074906
O 2.704236611 6.640531809 3.492046395
O 3.709759178 6.903044206 5.888642932
O 6.086183523 7.170539524 7.129825417
O 8.245817514 6.453369766 5.607120128
O 7.804469994 6.914530934 2.954708513
O 5.362998685 6.732347000 3.841926937
O 3.876070191 8.919350517 4.188362250
O 8.438473415 8.886182566 4.639557091
O 1.397375006 12.536770112 1.416561674
O 1.850404108 9.951551701 0.979631498
O 2.053148396 7.287918061 0.972529360
O 6.388058216 12.799586249 2.040043364
O 5.750358067 10.498267992 0.985992414
O 5.845457794 7.917766138 1.518332881
O 10.177131227 10.772247584 3.661747197
O 10.192041287 7.098062415 3.834508751
O 8.722157161 14.931432148 8.476693686
O 3.704698423 14.938727990 8.396905923
O 5.429252932 15.065711645 1.199955552
O 2.488969379 14.929109547 0.973291780
O 1.472831858 4.961493890 1.873402542
O 6.197463356 5.273721961 1.697908825
O 4.633453467 4.978274640 7.573415498
O 7.520615452 4.978813684 7.676822281
O 11.211202772 4.863159434 4.730972614
O 16.214897411 4.993528881 4.818526065
O 14.649867627 4.973451446 12.579549661
O 17.619668629 5.061034790 12.312608843
O 18.646170191 14.941327118 11.495289451
O 13.725884980 14.938229915 11.515787679
O 15.498394902 14.967793672 5.630048263
O 12.419544693 14.917781828 5.717336735
O 7.483960662 5.655976187 -15.822340574
O 8.250917421 3.776723763 13.739907833
Al 6.284446021 3.650902927 2.364928780
Al 12.410879513 8.660935078 6.358654041
Al 15.460634154 13.162947483 6.189452569
Al 5.547954196 13.260952391 0.575948775
H -14.190533034 -4.845911270 2.094254133
H 15.941963198 14.935162000 4.754274956
H 12.955604525 8.244929273 8.533347878
H 7.327419597 4.721136664 -2.661468847
H 8.045847168 7.183436869 -14.313491904
H 8.473470498 5.465585334 -13.614205470
H 10.010086247 6.701850086 -14.044589287
H 10.135487979 6.539450048 -12.175736500
H 8.908280379 8.757704544 -11.799496588
H 9.100911961 9.203094462 -13.484721376
H 10.541923402 9.067744744 -12.388904944
H 6.809041073 6.110064561 -16.357534771
H 8.863100070 1.796234825 13.532458415
H 9.494534171 2.656934342 14.951030784
H 11.249455340 2.337685425 13.208007044
H 10.981868569 4.023882411 13.570512752
H 9.572489986 4.285918951 11.481615657
H 9.677790564 2.550849579 11.193657189
H 11.126898183 3.554124507 11.038444684
H 7.442151833 3.390502349 13.362250242
C 8.626829180 6.552442161 -13.651106244
C 9.613494598 7.167750916 -12.900753999
C 9.576391420 8.642673029 -12.672296936
C 9.271282996 2.752889842 13.883477227
C 10.512858423 3.147405800 13.098748085
C 10.210737891 3.406456537 11.622295377
