304
TS1
Si 8.433898650 1.112840976 8.816094230
Si 6.073818929 0.513399279 10.847088001
Si 5.571962535 1.273777852 0.371865988
Si 2.384785883 1.270036653 0.191073086
Si 1.379067892 0.525958821 10.811342904
Si 3.649204054 1.216560700 8.989968073
Si 8.465722451 16.417885631 9.017285536
Si 6.140289202 17.165407514 10.953161898
Si 5.401052220 16.586919063 0.517233161
Si 2.376141852 16.449557435 0.431682515
Si 1.429385486 17.325450639 10.969311641
Si 3.685252522 16.459692892 9.044023233
Si 1.547871479 18.825638704 2.093307812
Si 3.965919427 19.405384712 4.097813221
Si 4.385914471 18.756584632 6.995837547
Si 7.585432517 18.587237048 6.941557408
Si 8.627811815 19.327924942 4.220574908
Si 6.409682927 18.777981457 2.327525478
Si 1.568165301 3.389020148 2.348786846
Si 3.964479132 2.747547243 4.315911563
Si 4.582025864 3.404175394 7.214671550
Si 7.600430416 3.435796821 7.089287789
Si 8.635806538 2.485732228 4.298121706
Si 11.498192645 11.090693554 4.582244190
Si 13.922691694 10.473558916 2.610293811
Si 14.418809086 11.180276484 13.056841105
Si 17.621402831 11.292134558 13.193243647
Si 18.668133907 10.390588100 2.538995870
Si 16.424091723 11.147027407 4.385992973
Si 11.551737267 6.419457056 4.452448625
Si 13.833724012 7.247475171 2.459786417
Si 14.568824509 6.542357765 12.924177844
Si 17.624765009 6.628436557 12.994075467
Si 18.656058959 7.292777293 2.421921740
Si 16.310931165 6.520136635 4.310354236
Si 18.400952903 8.937177382 11.257093338
Si 15.981689292 9.391535507 9.265042450
Si 15.664479740 8.830280780 6.378038259
Si 11.294723937 9.471175563 9.362608829
Si 13.611883706 8.773473334 11.119132707
Si 18.472000078 13.368832177 11.160407543
Si 16.091427554 12.625575191 9.152094227
Si 12.349927176 13.362690946 6.254722730
Si 11.344719814 12.557217940 9.104437886
Si 13.665761317 13.428531346 10.999242919
Si 11.563960416 18.812657719 4.615100851
Si 13.933550341 19.321592757 2.546834926
Si 14.421602080 18.730706880 12.993568973
Si 17.634880586 18.608827171 13.116328266
Si 18.674058138 19.416636727 2.513076904
Si 16.393653696 18.721748500 4.313470968
Si 11.575277255 3.321664731 4.445868193
Si 13.938602613 2.652982269 2.422073254
Si 14.557655447 3.368284095 12.891164835
Si 18.638605045 2.640584684 2.543981335
Si 16.294072286 3.453476894 4.283474963
Si 18.491648915 1.124110821 11.225810723
Si 16.085655503 0.606239558 9.243588873
Si 15.566539312 1.176978268 6.312947356
Si 12.420984064 1.261274833 6.529292626
Si 11.352870316 0.537676535 9.261533067
Si 13.643665800 1.252640307 11.079574734
Si 18.535221196 16.490078597 11.044864466
Si 16.162502901 17.265671254 9.136627022
Si 15.452424108 16.592157041 6.185590668
Si 12.381589268 16.429817737 6.262347524
Si 11.374551593 17.312817715 9.105009421
Si 13.690927009 16.442507297 10.972260022
Si 8.354482871 8.807288738 8.767084018
Si 6.053802606 9.288196369 10.856881465
Si 5.530709322 8.948459681 0.362447546
Si 2.378705268 8.639605996 0.193162039
Si 1.298615316 9.422319321 10.848615741
Si 3.633633542 8.656710074 9.074089824
Si 8.471389498 13.355105657 8.844402252
Si 2.415093529 13.367126589 0.435607331
Si 1.367947478 12.546484401 10.999586284
Si 3.588815996 13.455641980 9.084807170
Si 1.585258830 11.075861873 2.119087536
Si 3.930442633 10.551361323 4.188450324
Si 4.434447941 11.093252891 7.141248425
Si 7.629832823 11.258728424 6.829208858
Si 8.645627374 10.416302693 4.070387809
Si 6.340648068 11.228606028 2.362219597
Si 1.565875247 6.479598480 2.299280896
Si 3.895554747 7.301614549 4.273942401
Si 4.513375924 6.537381211 7.198119180
Si 7.541734721 6.491094344 7.074744482
Si 8.659953453 7.387677917 4.338930681
Si 6.347381188 6.670948477 2.461172005
Si 17.633142212 3.287426961 13.064225206
Si 6.234840985 12.534303505 11.001807325
O 7.231417023 1.105598993 9.893794561
O 6.301198912 1.184503788 12.296435899
O 3.974798339 1.008199054 0.253192652
O 1.852116460 1.472268155 12.048508028
O 2.122228866 1.008705394 9.459241055
O 4.622207181 0.920625414 10.259902641
O 7.421947730 16.487995555 10.260328576
O 6.127174269 16.580719101 12.473535865
O 3.886889520 17.130565080 0.360715880
O 1.761798678 16.484513442 12.313936822
O 2.235396847 16.679434097 9.716922286
O 4.791715517 16.575904803 10.248753750
O 6.128657850 18.779469759 10.888827668
O 1.771645070 18.888491430 11.233799139
O 8.529559867 2.579414370 8.120060321
O 8.254935986 19.883655937 7.661627742
O 7.872385099 17.231024906 7.756848470
O 3.811103871 2.745570277 8.484602174
O 3.898306567 0.189628802 7.761570325
O 3.901186969 17.414884902 7.771107785
O 19.831747979 0.645962660 10.436720569
O 19.917061468 17.141796428 10.523674636
O 2.789563710 18.890493603 3.117461204
O 3.698744131 18.702055692 5.535026636
O 5.992491050 18.806275859 6.868524876
O 8.169666603 18.345623628 5.441597509
O 7.935321117 18.877699601 2.832678474
O 5.381385520 18.794589265 3.572709378
O 2.608476535 3.224398614 3.563735720
O 3.708581499 3.128886111 5.884528961
O 6.099695727 2.773920379 7.051624303
O 8.256662215 3.404631812 5.602944209
O 7.971865288 3.045321820 2.940778104
O 5.269399537 3.488636905 3.756052297
O 4.079618360 1.111440754 4.188880205
O 8.169174926 0.940985023 4.636327139
O 1.471613183 17.327823702 1.443205031
O 1.660418048 -0.009993048 0.878233921
O 1.957176306 2.598013151 0.989578749
O 6.305032661 17.318053225 1.612274166
O 6.119421482 19.909415399 1.241280572
O 5.929718458 2.680046647 0.990701376
O 10.195937208 19.162690657 3.835065344
O 10.255035677 2.483688576 4.011488443
O 12.786049044 11.056741176 3.578241065
O 13.727794507 11.148875694 1.139412434
O 16.032011476 11.067406946 13.039840446
O 18.080656800 11.334060107 1.353190940
O 17.903072792 10.682665265 3.921507627
O 15.403747790 10.864520726 3.132321503
O 12.602581768 6.537706753 3.211192265
O 13.723947730 6.810868025 0.892972044
O 16.097296290 7.173403268 13.037711759
O 18.259718235 6.446475586 1.071428317
O 17.777167654 6.808839364 3.676229654
O 15.218043611 6.725991982 3.119434425
O 13.801777496 8.856960352 2.504990384
O 18.440168042 8.850338703 2.046703791
O 11.393804419 12.612133005 5.174209580
O 11.578270664 10.039195830 5.795095602
O 12.053750386 7.095551316 5.799679448
O 16.389427627 12.695940839 4.815295113
O 16.131773065 10.230149549 5.703027275
O 16.127438123 7.468285189 5.607906330
O 0.199222554 10.685374605 2.862291040
O 0.152830045 7.018358615 2.866849114
O 17.058539837 8.850240644 10.357347022
O 16.400688392 8.744959252 7.847974880
O 14.089400417 8.928745415 6.520646593
O 12.050339701 8.469981378 8.205324320
O 12.052346267 9.024840427 10.718108944
O 14.472451357 8.850677186 9.718318570
O 17.331691909 13.082813076 10.079753157
O 16.316349271 13.174290548 7.677436991
O 13.815181590 12.713616853 6.332630322
O 11.679044101 13.367667587 7.752155708
O 12.223772688 13.081585923 10.357751542
O 14.742092229 13.263967056 9.809513262
O 15.938919585 10.997500640 9.206738700
O 11.599294551 10.957633676 8.838066435
O 18.540139217 7.458062768 11.959880135
O 18.349626323 10.056998669 12.419741734
O 18.072323067 12.718037158 12.587692346
O 13.805760952 7.271266208 11.687614833
O 13.995278785 9.853307983 12.226081597
O 13.909385254 12.519318919 12.315185968
O 9.750437269 9.119210375 9.550683734
O 9.805797913 12.721111241 9.551391813
O 12.796827033 18.795002402 3.568687107
O 13.713224676 18.699266725 1.071499116
O 16.029677295 18.703083513 13.043075565
O 18.174864594 18.513215010 1.255127634
O 17.907390832 18.889569924 3.835594392
O 15.392035395 18.794435957 3.040115783
O 12.703224887 3.229023909 3.290829721
O 13.715762399 3.138278583 0.892239477
O 16.012742568 2.690147822 12.943326148
O 18.253182772 3.511728704 1.257739283
O 17.810235535 3.033729577 3.910096010
O 15.376190268 3.225099166 2.945848618
O 13.911078712 1.032991666 2.504030050
O 18.349606906 1.067522600 2.159297632
O 11.480678280 17.324283402 5.263878287
O 11.680012018 0.008145603 5.807463019
O 12.155220289 2.675671641 5.807274384
O 16.309024649 17.237684911 4.987439591
O 16.121721713 19.820552147 5.453137026
O 15.755941169 2.576010968 5.535139112
O 0.199402753 19.158205549 2.930968834
O 0.172076741 2.844201980 2.952218946
O 17.250711965 1.191964921 10.176218565
O 16.316073300 1.204705943 7.751839006
O 13.992046854 0.909055696 6.525143494
O 11.860799181 1.472388228 8.034622661
O 12.134287037 0.920909012 10.617646612
O 14.643814867 1.106481521 9.806904647
O 17.501192761 16.673143171 9.813208858
O 16.219680451 16.761017798 7.582485610
O 13.910611918 17.051870184 6.251594127
O 11.838659860 16.484943867 7.785572547
O 12.234405528 16.763186843 10.352950380
O 14.821648482 16.666611929 9.816285035
O 16.127587496 18.880828807 9.192494124
O 11.601147793 18.892664604 8.826473515
O 18.644208007 2.582141887 11.868032087
O 18.262643823 19.905998823 12.398884001
O 18.071326557 17.224143867 12.404113407
O 13.632456880 2.760979765 11.684531145
O 14.001225193 0.189261407 12.235669095
O 13.905186693 17.415221948 12.229297969
O 9.805399079 0.828132204 9.635169510
O 9.825842046 17.130784076 9.542054247
O 7.223663839 8.664055425 9.902020958
O 6.393681564 8.762736198 12.377826223
O 3.970943028 8.755076148 -0.008282837
O 1.660111292 8.484571359 12.126186944
O 2.116705216 8.941994129 9.546215911
O 4.631758007 8.653926010 10.350075264
O 7.233825154 13.180308447 9.797751317
O 6.398788551 13.273464518 12.494873049
O 3.876173244 12.716659147 0.440122072
O 1.764427277 13.437920360 12.301745102
O 2.129615863 13.087144760 9.649067617
O 4.627681949 13.444123307 10.438447869
O 5.929651918 10.870868988 10.790322509
O 1.673341104 10.964550238 11.242984593
O 8.530132917 7.369032111 8.025997583
O 8.169274200 9.960028479 7.657547838
O 8.252606766 12.627069306 7.406077878
O 3.623530369 7.188344844 8.385961317
O 3.992956521 9.763612391 7.939664051
O 3.990331217 12.430612311 7.944098653
O 19.752142538 9.217849328 10.423111622
O 19.833651421 12.702411088 10.610726011
O 2.778805281 11.146630900 3.214262818
O 3.701849546 11.140510128 5.695082393
O 6.031096039 11.153812539 7.029297052
O 8.060872240 11.344190019 5.267391348
O 7.797494175 10.585982568 2.692121279
O 5.379914694 11.044833517 3.669252000
O 2.617484140 6.720258845 3.485532329
O 3.717328585 6.812280493 5.807477533
O 6.037054277 7.172191839 7.129743420
O 8.147765618 6.444783559 5.559762864
O 7.795272616 7.096240308 3.017572149
O 5.264897649 6.640726579 3.670267518
O 3.896518544 8.924334757 4.189207404
O 8.444068277 8.937569135 4.732240626
O 1.394970071 12.535384180 1.418548345
O 1.851951004 9.951362529 0.979148543
O 1.961484126 7.284432286 0.964898577
O 6.396412241 12.781884756 1.973745403
O 5.744606561 10.402249167 1.064913353
O 5.931706673 7.737735205 1.340366610
O 10.180789057 10.775725816 3.662472402
O 10.186191710 7.105531471 3.914204680
O 8.723842296 14.926244999 8.480153484
O 3.781516489 14.936479298 8.472417965
O 5.381795977 15.022839231 1.161389243
O 2.487100492 14.927007268 0.973192697
O 1.471272267 4.933224365 1.870319666
O 6.589285283 5.205301296 1.781561357
O 4.637641174 4.975319296 7.575666565
O 7.517928311 4.966738161 7.658232360
O 11.210351155 4.860814120 4.729116849
O 16.220113664 4.981107691 4.818872776
O 14.649318060 4.972994183 12.580397093
O 17.619226546 5.060017957 12.313941710
O 18.724631175 14.935772531 11.421754370
O 13.721081863 14.941583038 11.585220384
O 15.487627525 14.993085817 5.625147026
O 12.419876644 14.917888569 5.717237810
O 8.991748188 4.880735343 -12.133904181
Al 6.353427787 3.539680216 2.420229017
Al 12.415602539 8.669244331 6.366813934
Al 15.465106053 13.184404092 6.198275481
Al 5.530758858 13.229450107 0.541742827
H -14.212467376 -4.902286734 2.044724909
H 15.958272488 14.951322035 4.763924552
H 12.953887642 8.244621539 8.545277346
H 7.923036451 5.121944314 1.304176190
H 10.769419154 5.096052748 -13.150963392
H 9.327307998 5.766835380 -13.966366029
H 10.154096386 3.764411812 -15.164915752
H 8.545732654 3.445770644 -14.520644723
H 9.553996697 2.101084931 -12.621310590
H 11.190456978 2.531174269 -13.181527523
H 10.146104053 1.501851008 -14.176514390
H 9.048826201 4.020927092 -11.627223378
C 9.731144759 4.892853085 -13.442322293
C 9.593269454 3.602366837 -14.227856232
C 10.152530422 2.370382114 -13.503404210
