304
TS5
Si 8.428554362 1.108232797 8.808623002
Si 6.068979552 0.506752591 10.846135106
Si 5.569236596 1.279774423 0.370204116
Si 2.387961741 1.272955656 0.185397464
Si 1.379485827 0.526560138 10.811695743
Si 3.647566548 1.218051621 8.988398202
Si 8.461903608 16.417251839 9.018052464
Si 6.118528603 17.156164161 10.944815198
Si 5.401146665 16.586155890 0.516446822
Si 2.376176239 16.449780803 0.432152971
Si 1.424945892 17.327617001 10.972865818
Si 3.660597592 16.458176380 9.036882989
Si 1.550139599 18.827363004 2.092932205
Si 3.966159648 19.409820627 4.097892474
Si 4.382700773 18.757103567 6.994262370
Si 7.581797889 18.583844857 6.936758758
Si 8.623728186 19.332950618 4.219369718
Si 6.406002056 18.780381962 2.326427423
Si 1.576996617 3.394410790 2.349465570
Si 3.979247025 2.754417823 4.307637564
Si 4.578360236 3.404082953 7.209726868
Si 7.596116208 3.435604366 7.084485403
Si 8.608580856 2.494726663 4.283126671
Si 11.496632735 11.089881069 4.581391052
Si 13.922538579 10.472460738 2.610890452
Si 14.419562066 11.180568043 13.058070098
Si 17.622192356 11.291869027 13.193939358
Si 18.670364752 10.388618586 2.538856082
Si 16.425064468 11.146684323 4.385186616
Si 11.556288065 6.416743691 4.452336714
Si 13.835050902 7.246026362 2.461076385
Si 14.575083042 6.546103458 12.926912187
Si 17.630925770 6.628621015 12.996462911
Si 18.679564642 7.290078232 2.422374924
Si 16.320007082 6.521680656 4.306022091
Si 18.402224586 8.937454901 11.256846404
Si 15.983335220 9.391607031 9.264366076
Si 15.665310107 8.829540972 6.376343404
Si 11.295276566 9.472670711 9.361397767
Si 13.613191283 8.774395296 11.119089689
Si 18.472188168 13.368286880 11.160685884
Si 16.091967522 12.625514950 9.152074582
Si 12.349699744 13.361884317 6.254078581
Si 11.344312815 12.558401940 9.104315668
Si 13.666113317 13.427699498 10.999214366
Si 11.561755881 18.812907947 4.615014244
Si 13.934508625 19.320952838 2.547946830
Si 14.424043142 18.728580578 12.994315538
Si 17.637053206 18.608474752 13.116780447
Si 18.675459128 19.418800030 2.513170827
Si 16.393918813 18.723994487 4.315504958
Si 11.561347767 3.313413460 4.444919089
Si 13.937145118 2.654473451 2.425998988
Si 14.563939011 3.368603465 12.893333823
Si 18.643915969 2.642677594 2.544771186
Si 16.295363538 3.453872198 4.284530075
Si 18.493747239 1.123720115 11.225815404
Si 16.089294266 0.605481895 9.242826870
Si 15.562090038 1.178606916 6.321345208
Si 12.422306703 1.261515774 6.534640026
Si 11.351283536 0.534289239 9.259945761
Si 13.648196246 1.249699076 11.077507163
Si 18.534722849 16.489527873 11.045208199
Si 16.163011251 17.265123200 9.136372458
Si 15.452717995 16.591455708 6.185280368
Si 12.382038812 16.429334937 6.261264968
Si 11.372949132 17.309253883 9.104729121
Si 13.691446334 16.441362089 10.971799529
Si 8.351747552 8.812287674 8.769338541
Si 6.051361885 9.287350463 10.866485568
Si 5.544272203 8.947078151 0.383694866
Si 2.387721957 8.639601855 0.194320123
Si 1.300142639 9.420821507 10.850272258
Si 3.633778187 8.656823424 9.074792939
Si 8.470544424 13.354579887 8.844146799
Si 2.414834022 13.367100287 0.436892675
Si 1.365947179 12.544125742 11.003261505
Si 3.578638699 13.451044374 9.086068443
Si 1.587347592 11.075137114 2.118914393
Si 3.931469728 10.555130370 4.188865035
Si 4.433479429 11.093033884 7.141103861
Si 7.628296768 11.259287479 6.827668824
Si 8.642678507 10.412015498 4.068076159
Si 6.339067731 11.229880835 2.361060856
Si 1.605972863 6.482737445 2.309926302
Si 3.941970059 7.316469958 4.291009188
Si 4.508978100 6.535882234 7.200656213
Si 7.530807717 6.492064223 7.097896043
Si 8.663345038 7.373610347 4.363440567
Si 6.360511890 6.652216162 2.471996327
Si 17.637766815 3.288233761 13.065060046
Si 6.233441814 12.534824886 11.001857313
O 7.232161809 1.105570050 9.895123846
O 6.308875443 1.183106992 12.291954653
O 3.978695873 1.008976287 0.175879493
O 1.848387860 1.473581046 12.046250886
O 2.121698751 1.008409252 9.458910479
O 4.621628977 0.920719243 10.258713312
O 7.414884008 16.488557693 10.259573163
O 6.124916077 16.579825219 12.469685617
O 3.886778101 17.130547833 0.360593292
O 1.761235172 16.483349335 12.314114731
O 2.222807120 16.682383964 9.718439096
O 4.745656699 16.580258420 10.259980483
O 6.128256353 18.773807388 10.886958717
O 1.771166382 18.889217850 11.234759581
O 8.529023416 2.579839352 8.121908944
O 8.255839908 19.879214274 7.659398260
O 7.872186446 17.230946393 7.756681627
O 3.811036907 2.746409933 8.484283019
O 3.898101579 0.189389940 7.761900209
O 3.901007585 17.413779918 7.770330262
O 19.831580740 0.645543817 10.436072611
O 19.912936982 17.145664861 10.524382202
O 2.790050438 18.890140368 3.117624583
O 3.698269110 18.701652616 5.534243555
O 5.990173110 18.806362514 6.869316910
O 8.169945473 18.344869593 5.440029763
O 7.933067820 18.878096173 2.831018987
O 5.380655482 18.793990436 3.573037165
O 2.610063544 3.223003126 3.565360425
O 3.708346767 3.127968867 5.881995674
O 6.098011828 2.773388791 7.053550141
O 8.256454973 3.405672455 5.606514672
O 7.963700025 3.049503621 2.937378024
O 5.278838304 3.485640322 3.751012829
O 4.078446790 1.111723177 4.189569533
O 8.168015431 0.940571815 4.638670714
O 1.471386056 17.328873472 1.442829644
O 1.664125907 -0.006521492 0.879422865
O 1.960543907 2.597611203 0.989643238
O 6.304932982 17.318350734 1.611368045
O 6.115725752 19.909920313 1.238112294
O 5.931679336 2.677484715 0.988605612
O 10.194994599 19.162933048 3.834970332
O 10.236271125 2.485477238 4.013496375
O 12.785720236 11.056603496 3.578307019
O 13.727662927 11.148697965 1.139821345
O 16.032234130 11.067312210 13.039722579
O 18.080668832 11.333156686 1.353763777
O 17.903551348 10.682295499 3.920936863
O 15.403488169 10.864636909 3.132351596
O 12.604701801 6.537557330 3.212039535
O 13.725547066 6.810641318 0.892395269
O 16.102688261 7.174615376 13.035878252
O 18.261981166 6.446614030 1.073390276
O 17.785903154 6.810568439 3.671208785
O 15.222352203 6.726372193 3.118164153
O 13.802340980 8.856161647 2.504716079
O 18.443151081 8.847508569 2.047935586
O 11.393597564 12.611763084 5.173986490
O 11.578334896 10.039229403 5.795199064
O 12.055014370 7.094161963 5.800754934
O 16.389602787 12.695761122 4.815183105
O 16.131751983 10.230361272 5.702867251
O 16.128588407 7.468161809 5.605509833
O 0.200214889 10.685400228 2.862334804
O 0.177400747 7.010668248 2.864160375
O 17.058687331 8.850195836 10.357485361
O 16.400545647 8.744571289 7.847444422
O 14.089830611 8.928483160 6.521073088
O 12.051164434 8.470121909 8.205549969
O 12.052322690 9.023882394 10.717972139
O 14.472524180 8.850578592 9.718033165
O 17.331591248 13.082876672 10.079861697
O 16.316254320 13.174280687 7.677419396
O 13.815114778 12.713605611 6.332733899
O 11.679102627 13.367953827 7.751928570
O 12.223812641 13.081687391 10.357795781
O 14.742122450 13.263922371 9.809451678
O 15.938569417 10.997355714 9.206626639
O 11.599537550 10.958427005 8.838074967
O 18.540917620 7.458216541 11.959271507
O 18.349449786 10.056908289 12.419601053
O 18.072005302 12.718005713 12.587981951
O 13.805414073 7.270191710 11.688316737
O 13.995332804 9.853364213 12.226254086
O 13.909383542 12.519012875 12.315300579
O 9.751338249 9.118572127 9.551622968
O 9.805649350 12.721167316 9.551339535
O 12.796433358 18.795300377 3.568714979
O 13.713056704 18.699735741 1.071431883
O 16.030531480 18.703319751 13.042641901
O 18.174737855 18.513699074 1.255807598
O 17.906787974 18.890768722 3.835838368
O 15.392354592 18.794659918 3.040645895
O 12.699303328 3.227442397 3.292041481
O 13.714312363 3.137487737 0.891506665
O 16.015713987 2.688454021 12.942556661
O 18.252572570 3.512587042 1.258817527
O 17.810428376 3.033412970 3.910109871
O 15.375525942 3.225225899 2.946186820
O 13.910278043 1.033267303 2.503815289
O 18.350031503 1.069853430 2.159271993
O 11.480698027 17.324587861 5.263993177
O 11.683481741 0.009265398 5.807895459
O 12.157026425 2.672844055 5.806020721
O 16.308859873 17.238864819 4.987635013
O 16.114773746 19.824190005 5.454671139
O 15.753041475 2.574154324 5.535456513
O 0.199761161 19.158169356 2.930228368
O 0.175991965 2.847310225 2.949762567
O 17.250973833 1.192012414 10.177351018
O 16.321060814 1.205566989 7.753762430
O 13.994705687 0.913454036 6.602217307
O 11.856258783 1.473646882 8.038216754
O 12.132668822 0.922940367 10.619140836
O 14.644853620 1.106472141 9.806428034
O 17.500422650 16.672737563 9.813439233
O 16.219591662 16.761079723 7.582365549
O 13.910789812 17.051714190 6.251536669
O 11.839150570 16.485109640 7.784930575
O 12.234373098 16.763290850 10.353073274
O 14.821489849 16.666776457 9.816217629
O 16.127240645 18.880592953 9.192620017
O 11.600081806 18.891243907 8.827389978
O 18.644488251 2.582070180 11.867630699
O 18.262534444 19.906037694 12.398939710
O 18.070700661 17.223713744 12.404530971
O 13.631138713 2.761015436 11.685986793
O 14.000562285 0.189039090 12.236502890
O 13.904846343 17.415295694 12.229026987
O 9.802380928 0.830932490 9.636825511
O 9.824331822 17.130404871 9.542322652
O 7.222514368 8.664410880 9.904734334
O 6.393829317 8.758888433 12.385359665
O 3.982267863 8.750714001 -0.002184239
O 1.662493177 8.484495985 12.127990212
O 2.116630052 8.942310850 9.546447429
O 4.632124345 8.653769108 10.350867026
O 7.233650817 13.180121175 9.797778134
O 6.398084299 13.273937153 12.494579840
O 3.875571402 12.717108664 0.439668969
O 1.764117689 13.438141306 12.302556599
O 2.124369356 13.083521077 9.653366591
O 4.625836497 13.444503296 10.435242571
O 5.930142458 10.870441242 10.790992664
O 1.673143373 10.963480951 11.243776247
O 8.530651267 7.371003285 8.033407297
O 8.169911860 9.960832970 7.657160586
O 8.252625940 12.626965826 7.405803348
O 3.622319747 7.188390727 8.388498231
O 3.992991642 9.763590030 7.940084389
O 3.991106282 12.431266776 7.945268069
O 19.752917605 9.217770609 10.423240352
O 19.832612914 12.701585876 10.611063600
O 2.778715025 11.147892566 3.214164637
O 3.701877093 11.142912915 5.696416940
O 6.030886989 11.153720348 7.030462498
O 8.061603246 11.341582690 5.266985876
O 7.797089918 10.586613718 2.691335892
O 5.379991228 11.048436413 3.669198571
O 2.688499520 6.716800073 3.472807340
O 3.715340082 6.812964550 5.813602286
O 6.032593762 7.175364697 7.135405984
O 8.158021498 6.450706827 5.602648215
O 7.870093150 6.998398584 3.010522825
O 5.360909958 6.735563964 3.761846880
O 3.892779407 8.934129352 4.192459459
O 8.439908897 8.931118959 4.728549631
O 1.394595175 12.535113245 1.418662572
O 1.852724532 9.950964661 0.978415315
O 1.965205320 7.285974834 0.963387085
O 6.397830829 12.784735399 1.975359361
O 5.742783484 10.414628447 1.061611394
O 6.019846145 7.832206592 1.427445196
O 10.179070554 10.774484071 3.663083722
O 10.191197901 7.107449128 3.925489699
O 8.724576225 14.926298138 8.480786222
O 3.708554707 14.934037626 8.470627883
O 5.381620794 15.022447953 1.160617813
O 2.486843347 14.927215302 0.973402099
O 1.478758835 4.940335376 1.873442979
O 6.393570728 5.235200163 1.779425985
O 4.638130585 4.974578798 7.576930688
O 7.515848956 4.964055737 7.666851515
O 11.209560410 4.857529512 4.727522184
O 16.221024370 4.982050325 4.818222568
O 14.647962032 4.973470430 12.580256825
O 17.619522205 5.060043128 12.314043516
O 18.724487710 14.935534330 11.421664155
O 13.720975513 14.941222737 11.585398081
O 15.488289440 14.992706601 5.624908352
O 12.419888196 14.917636806 5.717124346
O 9.649133399 5.620058998 -12.041776644
Al 6.375806450 3.603969830 2.393184063
Al 12.416102225 8.668445955 6.363730744
Al 15.465202738 13.182981789 6.198148779
Al 5.531580778 13.224995029 0.543087784
H -14.214996338 -4.903284887 2.045068799
H 15.968098572 14.949081214 4.768690216
H 12.961254127 8.261741365 8.541071214
H 9.067451277 6.278965479 1.773804425
H 10.918772385 5.078219416 -14.080718756
H 9.258130753 5.744537799 -14.648999919
H 9.842837220 4.033998936 -15.282214590
H 8.224568824 3.533379263 -14.296285031
H 9.553689078 2.469687472 -12.417394398
H 11.084322121 2.711043607 -13.324404638
H 9.810275259 1.571238573 -13.927197168
H 9.696497516 4.907106372 -11.382218685
C 9.860060841 4.908041627 -14.286373620
C 9.291942829 3.652290050 -14.080145923
C 10.007203517 2.531247543 -13.430469488
